1
    SWAT Aug 23 2011    VER 2009/Rev. 488                                                                0/ 0/   0      0: 0: 0

    General Input/Output section (file.cio):                                        
    11/14/2011 12:00:00 AM ARCGIS-SWAT interface AV                                 
                                                                                    
         Number of years in run:   23
         Area of watershed:    42581.000 km2
         Random number generator cycles: 0, use default numbers

         Initial random number seed: wet/dry day prob        748932582
         Initial random number seed: radiation              1948832765
         Initial random number seed: precipitation           857034417
         Initial random number seed: 0.5 hr rainfall          67377721
         Initial random number seed: wind speed              366304404
         Initial random number seed: irrigation             1094585182
         Initial random number seed: relative humidity      1767585417
         Initial random number seed: max temperature         608439319
         Initial random number seed: min temperature         592757081

         Precipitation data used in run:
          Multiple gages read for watershed
             Daily rainfall data used

         Temperature data used in run:
          Multiple gages read for watershed

         PET method used: Hargreaves

         Rainfall/Runoff/Routing Option:
          Daily rainfall data
          Runoff estimated with curve number method
          Daily stream routing
           Variable Storage routing method
           Channel dimensions remain constant
           Subbasin algae/CBOD loadings modeled
           In-stream nutrient transformations modeled using QUAL2E equations

         Subbasin Input Summary:
          Sub Latitude  Elev(m) #HRUs Ponds Elevbnds Wetlnd
            1    37.60  1874.23     2                   
            2    37.49  1600.00     2                   
            3    37.61  1659.93     2                   
            4    37.59  1741.98     2                   
            5    37.41  1884.60     2                   
            6    37.20  1920.26     2                   
            7    37.18  1527.79     1                   
            8    36.76  1854.56     3                   
            9    36.78  1793.01     2                   
           10    36.50  1762.36     2                   
           11    36.32  1871.90     2                   
           12    36.29  1929.70     1                   
           13    36.11  1708.23     2                   
           14    35.92  1949.91     2                   
           15    35.91  1666.12     3                   
           16    35.74  1896.01     2                   
           17    35.54  1852.69     1                   
           18    35.66  1861.34     1                   
           19    35.29  1919.60     2                   
           20    35.17  1960.51     2                   

         HRU Input Summary Table 1:
          Sub   HRU   Area(ha) Slope SlpLgth(m) Ovrlnd_N CondII_CN TimeConc(hr) ESCO EPCO
            1     1   79547.05 0.059      60.98    0.150     79.00        2.932 0.95 1.00
            1     2   44052.96 0.047      91.46    0.150     84.00        2.125 0.95 1.00
            2     3   20650.30 0.144      24.39    0.150     79.00        1.420 0.95 1.00
            2     4   16749.70 0.095      60.98    0.150     84.00        1.427 0.95 1.00
            3     5   49718.10 0.096      60.98    0.150     79.00        1.754 0.95 1.00
            3     6   96181.91 0.063      60.98    0.150     84.00        2.851 0.95 1.00
            4     7   47980.06 0.068      60.98    0.150     79.00        1.658 0.95 1.00
            4     8   43819.94 0.043      91.46    0.150     84.00        1.785 0.95 1.00
            5     9  126628.56 0.065      60.98    0.150     79.00        2.919 0.95 1.00
            5    10  251071.44 0.044      91.46    0.150     84.00        5.129 0.95 1.00
            6    11   29142.13 0.091      60.98    0.120     83.00        1.659 0.95 1.00
            6    12  153357.86 0.057      60.98    0.150     84.00        5.980 0.95 1.00
            7    13  146600.00 0.041      91.46    0.150     84.00        6.046 0.95 1.00
            8    14  125399.66 0.103      60.98    0.150     79.00        2.580 0.95 1.00
            8    15  148509.22 0.075      60.98    0.150     84.00        2.967 0.95 1.00
            8    16   75491.12 0.064      60.98    0.150     80.00        1.867 0.95 1.00
            9    17  163488.89 0.078      60.98    0.150     79.00        3.524 0.95 1.00
            9    18  310711.09 0.038      91.46    0.150     84.00        6.104 0.95 1.00
           10    19   91636.97 0.073      60.98    0.150     84.00        2.714 0.95 1.00
           10    20   42163.03 0.080      60.98    0.150     80.00        1.590 0.95 1.00
           11    21  102659.25 0.050      91.46    0.150     84.00        2.969 0.95 1.00
           11    22  137940.75 0.033      91.46    0.150     84.00        3.739 0.95 1.00
           12    23  197700.00 0.035      91.46    0.150     84.00        5.444 0.95 1.00
           13    24  122896.52 0.044      91.46    0.150     84.00        4.059 0.95 1.00
           13    25   41203.48 0.032      91.46    0.150     80.00        2.049 0.95 1.00
           14    26  232676.48 0.064      60.98    0.150     84.00        6.573 0.95 1.00
           14    27  294723.53 0.035      91.46    0.150     84.00        8.226 0.95 1.00
           15    28   15945.67 0.031      91.46    0.150     84.00        1.963 0.95 1.00
           15    29    9545.70 0.036      91.46    0.150     84.00        1.494 0.95 1.00
           15    30   16708.63 0.024      91.46    0.150     80.00        2.073 0.95 1.00
           16    31   65761.66 0.021      91.46    0.150     84.00        3.055 0.95 1.00
           16    32   72738.34 0.024      91.46    0.150     84.00        3.225 0.95 1.00
           17    33  171800.00 0.032      91.46    0.150     84.00        6.456 0.95 1.00
           18    34  260900.00 0.029      91.46    0.150     84.00        7.418 0.95 1.00
           19    35  120012.91 0.065      60.98    0.150     79.00        2.907 0.95 1.00
           19    36  133787.09 0.022      91.46    0.150     84.00        3.513 0.95 1.00
           20    37  126853.34 0.059      60.98    0.150     79.00        3.387 0.95 1.00
           20    38   71346.66 0.032      91.46    0.150     84.00        2.502 0.95 1.00

         HRU CN Input Summary Table:
          Sub   HRU   Area(ha)  LULC      Soil    CN1    CN2    CN3  Wilting Point (mm H2O)  Field Capacity (mm H2O)  Saturation (mm H2O)
            1     1   79547.05  GRAS  I-Re-Yh-   61.7   79.0   91.0                   116.2                    120.0                404.6
            1     2   44052.96  GRAS  Xh31-3a-   68.4   84.0   93.5                   233.4                    180.0                200.6
            2     3   20650.30  GRAS  I-Re-Yh-   61.7   79.0   91.0                   116.2                    120.0                404.6
            2     4   16749.70  GRAS  Xh7-2-3a   68.4   84.0   93.5                   211.8                    180.0                222.2
            3     5   49718.10  GRAS  I-Re-Yh-   61.7   79.0   91.0                   116.2                    120.0                404.6
            3     6   96181.91  GRAS  Xh31-3a-   68.4   84.0   93.5                   233.4                    180.0                200.6
            4     7   47980.06  GRAS  I-Re-Yh-   61.7   79.0   91.0                   116.2                    120.0                404.6
            4     8   43819.94  GRAS  Xh31-3a-   68.4   84.0   93.5                   233.4                    180.0                200.6
            5     9  126628.56  GRAS  I-Re-Yh-   61.7   79.0   91.0                   116.2                    120.0                404.6
            5    10  251071.44  GRAS  Xk5-3ab-   68.4   84.0   93.5                   189.8                    180.0                281.9
            6    11   29142.13  CRWO  Rc36-3c-   67.0   83.0   93.1                   171.0                    120.0                263.0
            6    12  153357.86  GRAS  Xk5-3ab-   68.4   84.0   93.5                   189.8                    180.0                281.9
            7    13  146600.00  GRAS  Rc33-3bc   68.4   84.0   93.5                   170.4                    100.0                263.6
            8    14  125399.66  GRAS  I-Re-Yh-   61.7   79.0   91.0                   116.2                    120.0                404.6
            8    15  148509.22  GRAS  Rc33-3bc   68.4   84.0   93.5                   170.4                    100.0                263.6
            8    16   75491.12  SHRB  Rc33-3bc   63.0   80.0   91.5                   170.4                    100.0                263.6
            9    17  163488.89  GRAS  I-Re-Yh-   61.7   79.0   91.0                   116.2                    120.0                404.6
            9    18  310711.09  GRAS  Xh7-2-3a   68.4   84.0   93.5                   211.8                    180.0                222.2
           10    19   91636.97  GRAS  Rc33-3bc   68.4   84.0   93.5                   170.4                    100.0                263.6
           10    20   42163.03  SHRB  Rc33-3bc   63.0   80.0   91.5                   170.4                    100.0                263.6
           11    21  102659.25  GRAS  Rc33-3bc   68.4   84.0   93.5                   170.4                    100.0                263.6
           11    22  137940.75  GRAS  Xk5-3ab-   68.4   84.0   93.5                   189.8                    180.0                281.9
           12    23  197700.00  GRAS  Xk34-2ab   68.4   84.0   93.5                   171.9                    180.0                299.8
           13    24  122896.52  GRAS  Rc33-3bc   68.4   84.0   93.5                   170.4                    100.0                263.6
           13    25   41203.48  SHRB  Rc33-3bc   63.0   80.0   91.5                   170.4                    100.0                263.6
           14    26  232676.48  GRAS  I-Rc-Xk-   68.4   84.0   93.5                   169.7                    120.0                275.6
           14    27  294723.53  GRAS  Xh39-3ab   68.4   84.0   93.5                   245.8                    180.0                225.9
           15    28   15945.67  GRAS  Rc33-3bc   68.4   84.0   93.5                   170.4                    100.0                263.6
           15    29    9545.70  GRAS  Xk5-3ab-   68.4   84.0   93.5                   189.8                    180.0                281.9
           15    30   16708.63  SHRB  Rc33-3bc   63.0   80.0   91.5                   170.4                    100.0                263.6
           16    31   65761.66  GRAS  Xh7-2-3a   68.4   84.0   93.5                   211.8                    180.0                222.2
           16    32   72738.34  GRAS  Xk5-3ab-   68.4   84.0   93.5                   189.8                    180.0                281.9
           17    33  171800.00  GRAS  Rc33-3bc   68.4   84.0   93.5                   170.4                    100.0                263.6
           18    34  260900.00  GRAS  Xh39-3ab   68.4   84.0   93.5                   245.8                    180.0                225.9
           19    35  120012.91  GRAS  I-Re-Yh-   61.7   79.0   91.0                   116.2                    120.0                404.6
           19    36  133787.09  GRAS  Xh39-3ab   68.4   84.0   93.5                   245.8                    180.0                225.9
           20    37  126853.34  GRAS  I-Re-Yh-   61.7   79.0   91.0                   116.2                    120.0                404.6
           20    38   71346.66  GRAS  Xh31-3a-   68.4   84.0   93.5                   233.4                    180.0                200.6

         HRU Input Summary Table 2:
          Sub   HRU   Area(ha)         SoilName Hydgrp MaxRtDpth(mm) Albedo USLE_K USLE_P USLE_LS ProfileAWC(mm) IniSoilH2O(mm)
            1     1   79547.05 I-Re-Yh-c-3129     C           690.00   0.13   0.31   1.00    0.96    120.000          6.845
            1     2   44052.96 Xh31-3a-3288       D          1000.00   0.19   0.33   1.00    0.85    180.000         10.267
            2     3   20650.30 I-Re-Yh-c-3129     C           690.00   0.13   0.31   1.00    2.17    120.000          6.845
            2     4   16749.70 Xh7-2-3ab-3297     D          1000.00   0.19   0.33   1.00    1.95    180.000         10.267
            3     5   49718.10 I-Re-Yh-c-3129     C           690.00   0.13   0.31   1.00    1.98    120.000          6.845
            3     6   96181.91 Xh31-3a-3288       D          1000.00   0.19   0.33   1.00    1.05    180.000         10.267
            4     7   47980.06 I-Re-Yh-c-3129     C           690.00   0.13   0.31   1.00    1.18    120.000          6.845
            4     8   43819.94 Xh31-3a-3288       D          1000.00   0.19   0.33   1.00    0.75    180.000         10.267
            5     9  126628.56 I-Re-Yh-c-3129     C           690.00   0.13   0.31   1.00    1.10    120.000          6.845
            5    10  251071.44 Xk5-3ab-3304       D          1000.00   0.13   0.36   1.00    0.77    180.000         10.267
            6    11   29142.13 Rc36-3c-3256       D           930.00   0.13   0.34   1.00    1.82    120.000          6.845
            6    12  153357.86 Xk5-3ab-3304       D          1000.00   0.13   0.36   1.00    0.91    180.000         10.267
            7    13  146600.00 Rc33-3bc-3254      D           780.00   0.13   0.32   1.00    0.70    100.000          5.704
            8    14  125399.66 I-Re-Yh-c-3129     C           690.00   0.13   0.31   1.00    2.21    120.000          9.689
            8    15  148509.22 Rc33-3bc-3254      D           780.00   0.13   0.32   1.00    1.36    100.000          8.074
            8    16   75491.12 Rc33-3bc-3254      D           780.00   0.13   0.32   1.00    1.08    100.000          8.074
            9    17  163488.89 I-Re-Yh-c-3129     C           690.00   0.13   0.31   1.00    1.44    120.000          7.202
            9    18  310711.09 Xh7-2-3ab-3297     D          1000.00   0.19   0.33   1.00    0.63    180.000         10.804
           10    19   91636.97 Rc33-3bc-3254      D           780.00   0.13   0.32   1.00    1.31    100.000          6.002
           10    20   42163.03 Rc33-3bc-3254      D           780.00   0.13   0.32   1.00    1.50    100.000          6.002
           11    21  102659.25 Rc33-3bc-3254      D           780.00   0.13   0.32   1.00    0.93    100.000         10.258
           11    22  137940.75 Xk5-3ab-3304       D          1000.00   0.13   0.36   1.00    0.52    180.000         18.464
           12    23  197700.00 Xk34-2ab-3302      D          1000.00   0.10   0.35   1.00    0.56    180.000         14.533
           13    24  122896.52 Rc33-3bc-3254      D           780.00   0.13   0.32   1.00    0.77    100.000         10.258
           13    25   41203.48 Rc33-3bc-3254      D           780.00   0.13   0.32   1.00    0.50    100.000         10.258
           14    26  232676.48 I-Rc-Xk-c-3122     D           690.00   0.10   0.32   1.00    1.08    120.000          9.350
           14    27  294723.53 Xh39-3ab-3292      D          1000.00   0.15   0.32   1.00    0.56    180.000         14.026
           15    28   15945.67 Rc33-3bc-3254      D           780.00   0.13   0.32   1.00    0.48    100.000         10.258
           15    29    9545.70 Xk5-3ab-3304       D          1000.00   0.13   0.36   1.00    0.58    180.000         18.464
           15    30   16708.63 Rc33-3bc-3254      D           780.00   0.13   0.32   1.00    0.35    100.000         10.258
           16    31   65761.66 Xh7-2-3ab-3297     D          1000.00   0.19   0.33   1.00    0.30    180.000         18.464
           16    32   72738.34 Xk5-3ab-3304       D          1000.00   0.13   0.36   1.00    0.35    180.000         18.464
           17    33  171800.00 Rc33-3bc-3254      D           780.00   0.13   0.32   1.00    0.50    100.000          7.792
           18    34  260900.00 Xh39-3ab-3292      D          1000.00   0.15   0.32   1.00    0.44    180.000         14.026
           19    35  120012.91 I-Re-Yh-c-3129     C           690.00   0.13   0.31   1.00    1.10    120.000          9.350
           19    36  133787.09 Xh39-3ab-3292      D          1000.00   0.15   0.32   1.00    0.31    180.000         14.026
           20    37  126853.34 I-Re-Yh-c-3129     C           690.00   0.13   0.31   1.00    0.96    120.000          9.350
           20    38   71346.66 Xh31-3a-3288       D          1000.00   0.19   0.33   1.00    0.50    180.000         14.026

         HRU Input Summary Table 3:
          Sub   HRU   Area(ha) Urban Irrig DrainTiles Pothole Pstcide Biomix Septic
            1     1   79547.05                                          0.20 x
            1     2   44052.96                                          0.20 x
            2     3   20650.30                                          0.20 x
            2     4   16749.70                                          0.20 x
            3     5   49718.10                                          0.20 x
            3     6   96181.91                                          0.20 x
            4     7   47980.06                                          0.20 x
            4     8   43819.94                                          0.20 x
            5     9  126628.56                                          0.20 x
            5    10  251071.44                                          0.20 x
            6    11   29142.13                                          0.20 x
            6    12  153357.86                                          0.20 x
            7    13  146600.00                                          0.20 x
            8    14  125399.66                                          0.20 x
            8    15  148509.22                                          0.20 x
            8    16   75491.12                                          0.20 x
            9    17  163488.89                                          0.20 x
            9    18  310711.09                                          0.20 x
           10    19   91636.97                                          0.20 x
           10    20   42163.03                                          0.20 x
           11    21  102659.25                                          0.20 x
           11    22  137940.75                                          0.20 x
           12    23  197700.00                                          0.20 x
           13    24  122896.52                                          0.20 x
           13    25   41203.48                                          0.20 x
           14    26  232676.48                                          0.20 x
           14    27  294723.53                                          0.20 x
           15    28   15945.67                                          0.20 x
           15    29    9545.70                                          0.20 x
           15    30   16708.63                                          0.20 x
           16    31   65761.66                                          0.20 x
           16    32   72738.34                                          0.20 x
           17    33  171800.00                                          0.20 x
           18    34  260900.00                                          0.20 x
           19    35  120012.91                                          0.20 x
           19    36  133787.09                                          0.20 x
           20    37  126853.34                                          0.20 x
           20    38   71346.66                                          0.20 x

         HRU Input Summary Table 4 (Groundwater):
          Sub   HRU   Area(ha) GWdelay(days), GWalpha(days) GWQmin(mm) GWrevap Revapmin(mm) Deepfr NO3(ppm) SolP(ppm)
            1     1   79547.05        31.000         0.048      0.000   0.020        1.000  0.050    0.000     0.000
            1     2   44052.96        31.000         0.048      0.000   0.020        1.000  0.050    0.000     0.000
            2     3   20650.30        31.000         0.048      0.000   0.020        1.000  0.050    0.000     0.000
            2     4   16749.70        31.000         0.048      0.000   0.020        1.000  0.050    0.000     0.000
            3     5   49718.10        31.000         0.048      0.000   0.020        1.000  0.050    0.000     0.000
            3     6   96181.91        31.000         0.048      0.000   0.020        1.000  0.050    0.000     0.000
            4     7   47980.06        31.000         0.048      0.000   0.020        1.000  0.050    0.000     0.000
            4     8   43819.94        31.000         0.048      0.000   0.020        1.000  0.050    0.000     0.000
            5     9  126628.56        31.000         0.048      0.000   0.020        1.000  0.050    0.000     0.000
            5    10  251071.44        31.000         0.048      0.000   0.020        1.000  0.050    0.000     0.000
            6    11   29142.13        31.000         0.048      0.000   0.020        1.000  0.050    0.000     0.000
            6    12  153357.86        31.000         0.048      0.000   0.020        1.000  0.050    0.000     0.000
            7    13  146600.00        31.000         0.048      0.000   0.020        1.000  0.050    0.000     0.000
            8    14  125399.66        31.000         0.048      0.000   0.020        1.000  0.050    0.000     0.000
            8    15  148509.22        31.000         0.048      0.000   0.020        1.000  0.050    0.000     0.000
            8    16   75491.12        31.000         0.048      0.000   0.020        1.000  0.050    0.000     0.000
            9    17  163488.89        31.000         0.048      0.000   0.020        1.000  0.050    0.000     0.000
            9    18  310711.09        31.000         0.048      0.000   0.020        1.000  0.050    0.000     0.000
           10    19   91636.97        31.000         0.048      0.000   0.020        1.000  0.050    0.000     0.000
           10    20   42163.03        31.000         0.048      0.000   0.020        1.000  0.050    0.000     0.000
           11    21  102659.25        31.000         0.048      0.000   0.020        1.000  0.050    0.000     0.000
           11    22  137940.75        31.000         0.048      0.000   0.020        1.000  0.050    0.000     0.000
           12    23  197700.00        31.000         0.048      0.000   0.020        1.000  0.050    0.000     0.000
           13    24  122896.52        31.000         0.048      0.000   0.020        1.000  0.050    0.000     0.000
           13    25   41203.48        31.000         0.048      0.000   0.020        1.000  0.050    0.000     0.000
           14    26  232676.48        31.000         0.048      0.000   0.020        1.000  0.050    0.000     0.000
           14    27  294723.53        31.000         0.048      0.000   0.020        1.000  0.050    0.000     0.000
           15    28   15945.67        31.000         0.048      0.000   0.020        1.000  0.050    0.000     0.000
           15    29    9545.70        31.000         0.048      0.000   0.020        1.000  0.050    0.000     0.000
           15    30   16708.63        31.000         0.048      0.000   0.020        1.000  0.050    0.000     0.000
           16    31   65761.66        31.000         0.048      0.000   0.020        1.000  0.050    0.000     0.000
           16    32   72738.34        31.000         0.048      0.000   0.020        1.000  0.050    0.000     0.000
           17    33  171800.00        31.000         0.048      0.000   0.020        1.000  0.050    0.000     0.000
           18    34  260900.00        31.000         0.048      0.000   0.020        1.000  0.050    0.000     0.000
           19    35  120012.91        31.000         0.048      0.000   0.020        1.000  0.050    0.000     0.000
           19    36  133787.09        31.000         0.048      0.000   0.020        1.000  0.050    0.000     0.000
           20    37  126853.34        31.000         0.048      0.000   0.020        1.000  0.050    0.000     0.000
           20    38   71346.66        31.000         0.048      0.000   0.020        1.000  0.050    0.000     0.000

         Tributary/Main Channel Characteristics
              |--------------Tributary--------------------|---------------------Main---------------------------|
          Sub  Length(km) Slope Width(m) Cond(mm/hr)     N Length(km) Slope Width(m) Depth(m) Cond(mm/hr)     N
            1       61.60 0.010    92.43      0.5000 0.014       2.12 0.010    92.43     2.24      0.0000 0.014
            2       46.25 0.032    45.11      0.5000 0.014      24.49 0.003   772.89     9.24      0.0000 0.014
            3       74.53 0.018   102.10      0.5000 0.014      28.01 0.002   768.81     9.21      0.0000 0.014
            4       55.42 0.035    77.32      0.5000 0.014      32.14 0.009   128.98     2.80      0.0000 0.014
            5      145.98 0.015   180.67      0.5000 0.014      71.37 0.007   180.67     3.51      0.0000 0.014
            6      126.95 0.013   116.77      0.5000 0.014      51.78 0.007   116.77     2.62      0.0000 0.014
            7      100.40 0.012   102.39      0.5000 0.014      29.14 0.001   663.18     8.34      0.0000 0.014
            8      120.75 0.015   172.42      0.5000 0.014      65.60 0.003   585.21     7.68      0.0000 0.014
            9      152.27 0.009   207.09      0.5000 0.014      99.83 0.007   207.09     3.84      0.0000 0.014
           10       63.32 0.015    96.93      0.5000 0.014      57.87 0.002   538.14     7.26      0.0000 0.014
           11       94.15 0.011   137.84      0.5000 0.014      36.88 0.008   137.84     2.93      0.0000 0.014
           12       97.29 0.014   122.52      0.5000 0.014      11.57 0.001   122.52     2.71      0.0000 0.014
           13       82.77 0.012   109.56      0.5000 0.014      39.04 0.001   454.40     6.48      0.0000 0.014
           14      163.33 0.003   220.74      0.5000 0.014     101.89 0.002   220.74     4.01      0.0000 0.014
           15       46.70 0.013    48.50      0.5000 0.014      28.97 0.001   173.34     3.41      0.0000 0.014
           16       81.15 0.013    98.96      0.5000 0.014      15.44 0.002    98.96     2.35      0.0000 0.014
           17       98.05 0.009   112.62      0.5000 0.014      24.06 0.003   112.62     2.56      0.0000 0.014
           18      109.50 0.007   144.70      0.5000 0.014      69.43 0.002   264.49     4.52      0.0000 0.014
           19       84.46 0.009   142.33      0.5000 0.014      22.85 0.003   142.33     2.99      0.0000 0.014
           20       83.43 0.012   122.70      0.5000 0.014      32.06 0.002   122.70     2.71      0.0000 0.014
