1
    SWAT Dec 23 2016    VER 2016/Rev 664                                                                 0/ 0/   0      0: 0: 0

    General Input/Output section (file.cio):                                        
    11/14/2011 12:00:00 AM ARCGIS-SWAT interface AV                                 
                                                                                    


       SUB      GIS  MON   AREAkm2  PRECIPmm SNOMELTmm     PETmm      ETmm      SWmm    PERCmm    SURQmm    GW_Qmm    WYLDmm  SYLDt/ha ORGNkg/ha ORGPkg/haNSURQkg/ha SOLPkg/ha SEDPkg/ha LAT Q(mm)LATNO3kg/hGWNO3kg/haCHOLAmic/LCBODU mg/L DOXQ mg/L TNO3kg/ha   QTILEmm TVAPkg/ha
BIGSUB   1        0    1.12360E+04    51.400    11.225    15.052     7.473    70.405     0.000     0.000     0.001     0.068     0.000     0.000     0.000     0.000     0.000     0.000     0.067     0.001     0.000 .00000E+00 0.000E+00 0.000E+00 0.000E+00 0.000E+00 0.000E+00
BIGSUB   2        0    1.37400E+03    51.400    11.225    15.113     7.562    70.149     0.000     0.000     0.001     0.399     0.000     0.000     0.000     0.000     0.000     0.000     0.399     0.005     0.000 .00000E+00 0.000E+00 0.000E+00 0.000E+00 0.000E+00 0.000E+00
BIGSUB   3        0    1.14590E+04    51.400    11.225    15.050     7.523    72.553     0.000     0.000     0.000     0.084     0.000     0.000     0.000     0.000     0.000     0.000     0.083     0.001     0.000 .00000E+00 0.000E+00 0.000E+00 0.000E+00 0.000E+00 0.000E+00
BIGSUB   4        0    1.91800E+03    51.400    11.225    15.061     7.498    71.276     0.000     0.000     0.001     0.066     0.000     0.000     0.000     0.000     0.000     0.000     0.065     0.001     0.000 .00000E+00 0.000E+00 0.000E+00 0.000E+00 0.000E+00 0.000E+00
BIGSUB   5        0    1.37770E+04    51.400    11.225    15.160     7.657    72.420     0.000     0.000     0.000     0.055     0.000     0.000     0.000     0.000     0.000     0.000     0.055     0.001     0.000 .00000E+00 0.000E+00 0.000E+00 0.000E+00 0.000E+00 0.000E+00
BIGSUB   6        0    1.18250E+04    51.400    11.225    15.279     7.784    72.519     0.000     0.000     0.000     0.062     0.000     0.000     0.000     0.000     0.000     0.000     0.062     0.001     0.000 .00000E+00 0.000E+00 0.000E+00 0.000E+00 0.000E+00 0.000E+00
BIGSUB   7        0    1.14660E+04    51.400    11.225    15.290     7.613    65.729     0.000     0.000     0.002     0.014     0.000     0.000     0.000     0.000     0.000     0.000     0.012     0.000     0.000 .00000E+00 0.000E+00 0.000E+00 0.000E+00 0.000E+00 0.000E+00
BIGSUB   8        0    1.34940E+04    51.400    11.225    15.520     7.693    65.963     0.000     0.000     0.001     0.076     0.000     0.000     0.000     0.000     0.000     0.000     0.075     0.001     0.000 .00000E+00 0.000E+00 0.000E+00 0.000E+00 0.000E+00 0.000E+00
BIGSUB   9        0    1.47420E+04    26.400    12.813    16.126     5.674    34.777     0.000     0.000     0.000     0.012     0.000     0.000     0.000     0.000     0.000     0.000     0.012     0.000     0.000 .00000E+00 0.000E+00 0.000E+00 0.000E+00 0.000E+00 0.000E+00
BIGSUB  10        0    1.13380E+04    26.400    12.807    16.283     7.166    25.737     0.000     0.000     0.000     0.012     0.000     0.000     0.000     0.000     0.000     0.000     0.012     0.000     0.000 .00000E+00 0.000E+00 0.000E+00 0.000E+00 0.000E+00 0.000E+00
BIGSUB  11        0    1.24060E+04    38.272    37.456    20.882     9.822    62.292     0.000     0.000     0.020     0.043     0.000     0.000     0.000     0.000     0.000     0.000     0.023     0.000     0.000 .00000E+00 0.000E+00 0.000E+00 0.000E+00 0.000E+00 0.000E+00
BIGSUB  12        0    1.19770E+04    46.500     4.125    14.944     7.086    63.309     0.000     0.000     0.003     0.017     0.000     0.000     0.000     0.000     0.000     0.000     0.014     0.000     0.000 .00000E+00 0.000E+00 0.000E+00 0.000E+00 0.000E+00 0.000E+00
BIGSUB  13        0    1.16410E+04    38.272    37.453    21.038    11.018    54.995     0.000     0.000     0.006     0.023     0.000     0.000     0.000     0.000     0.000     0.000     0.018     0.000     0.000 .00000E+00 0.000E+00 0.000E+00 0.000E+00 0.000E+00 0.000E+00
BIGSUB  14        0    1.52740E+04    46.500     4.125    15.141     7.044    59.551     0.000     0.000     0.003     0.030     0.000     0.000     0.000     0.000     0.000     0.000     0.028     0.000     0.000 .00000E+00 0.000E+00 0.000E+00 0.000E+00 0.000E+00 0.000E+00
BIGSUB  15        0    1.42200E+03    38.272    37.451    21.185    10.625    57.919     0.000     0.000     0.022     0.037     0.000     0.000     0.000     0.000     0.000     0.000     0.015     0.000     0.000 .00000E+00 0.000E+00 0.000E+00 0.000E+00 0.000E+00 0.000E+00
BIGSUB  16        0    1.13850E+04    38.272    37.448    21.310     9.047    67.194     0.000     0.000     0.016     0.031     0.000     0.000     0.000     0.000     0.000     0.000     0.015     0.000     0.000 .00000E+00 0.000E+00 0.000E+00 0.000E+00 0.000E+00 0.000E+00
BIGSUB  17        0    1.17180E+04    46.500     4.125    15.342     7.007    51.949     0.000     0.000     0.007     0.018     0.000     0.000     0.000     0.000     0.000     0.000     0.011     0.000     0.000 .00000E+00 0.000E+00 0.000E+00 0.000E+00 0.000E+00 0.000E+00
BIGSUB  18        0    1.26090E+04    46.500     4.125    15.277     7.119    62.590     0.000     0.000     0.000     0.020     0.000     0.000     0.000     0.000     0.000     0.000     0.020     0.000     0.000 .00000E+00 0.000E+00 0.000E+00 0.000E+00 0.000E+00 0.000E+00
BIGSUB  19        0    1.25380E+04    46.500     4.125    15.474     7.110    58.691     0.000     0.000     0.003     0.042     0.000     0.000     0.000     0.000     0.000     0.000     0.039     0.001     0.000 .00000E+00 0.000E+00 0.000E+00 0.000E+00 0.000E+00 0.000E+00
BIGSUB  20        0    1.19820E+04    46.500     4.125    15.535     7.070    57.366     0.000     0.000     0.000     0.049     0.000     0.000     0.000     0.000     0.000     0.000     0.049     0.001     0.000 .00000E+00 0.000E+00 0.000E+00 0.000E+00 0.000E+00 0.000E+00
BIGSUB   1        0    2.12360E+04    40.600    43.800    25.836    17.757   105.357     0.000     0.000     0.000     0.051     0.000     0.000     0.000     0.000     0.000     0.000     0.050     0.001     0.000 .00000E+00 0.000E+00 0.000E+00 0.000E+00 0.000E+00 0.000E+00
BIGSUB   2        0    2.37400E+03    40.600    43.798    25.908    17.763   104.826     0.000     0.000     0.000     0.246     0.000     0.000     0.000     0.000     0.000     0.000     0.246     0.004     0.000 .00000E+00 0.000E+00 0.000E+00 0.000E+00 0.000E+00 0.000E+00
BIGSUB   3        0    2.14590E+04    40.600    43.800    25.835    17.080   108.168     0.000     0.000     0.000     0.065     0.000     0.000     0.000     0.000     0.000     0.000     0.065     0.001     0.000 .00000E+00 0.000E+00 0.000E+00 0.000E+00 0.000E+00 0.000E+00
BIGSUB   4        0    2.91800E+03    40.600    43.800    25.847    17.493   106.493     0.000     0.000     0.000     0.049     0.000     0.000     0.000     0.000     0.000     0.000     0.049     0.001     0.000 .00000E+00 0.000E+00 0.000E+00 0.000E+00 0.000E+00 0.000E+00
BIGSUB   5        0    2.37770E+04    40.600    43.795    25.964    17.462   107.670     0.000     0.000     0.000     0.043     0.000     0.000     0.000     0.000     0.000     0.000     0.043     0.001     0.000 .00000E+00 0.000E+00 0.000E+00 0.000E+00 0.000E+00 0.000E+00
BIGSUB   6        0    2.18250E+04    40.600    43.790    26.104    17.016   108.196     0.000     0.000     0.000     0.053     0.000     0.000     0.000     0.000     0.000     0.000     0.053     0.001     0.000 .00000E+00 0.000E+00 0.000E+00 0.000E+00 0.000E+00 0.000E+00
BIGSUB   7        0    2.14660E+04    40.600    43.789    26.117    17.427    94.840     6.214     0.000     0.591     0.601     0.000     0.000     0.000     0.000     0.000     0.000     0.011     0.000     0.043 .00000E+00 0.000E+00 0.000E+00 0.000E+00 0.000E+00 0.000E+00
BIGSUB   8        0    2.34940E+04    40.600    43.779    26.378    18.022    96.996     3.624     0.000     0.281     0.337     0.000     0.000     0.000     0.000     0.000     0.000     0.056     0.001     0.000 .00000E+00 0.000E+00 0.000E+00 0.000E+00 0.000E+00 0.000E+00
BIGSUB   9        0    2.47420E+04    35.500    36.773    23.388    11.957    70.043     0.000     0.000     0.000     0.015     0.000     0.000     0.000     0.000     0.000     0.000     0.015     0.000     0.000 .00000E+00 0.000E+00 0.000E+00 0.000E+00 0.000E+00 0.000E+00
BIGSUB  10        0    2.13380E+04    35.500    36.769    23.547    11.857    61.099     0.000     0.000     0.000     0.012     0.000     0.000     0.000     0.000     0.000     0.000     0.011     0.000     0.000 .00000E+00 0.000E+00 0.000E+00 0.000E+00 0.000E+00 0.000E+00
BIGSUB  11        0    2.24060E+04    26.224     9.666    21.797    12.840    59.955     0.000     0.000     0.007     0.025     0.000     0.000     0.000     0.000     0.000     0.000     0.018     0.000     0.000 .00000E+00 0.000E+00 0.000E+00 0.000E+00 0.000E+00 0.000E+00
BIGSUB  12        0    2.19770E+04    44.900    32.625    19.464     8.200    89.557     0.000     0.000     0.001     0.012     0.000     0.000     0.000     0.000     0.000     0.000     0.011     0.000     0.000 .00000E+00 0.000E+00 0.000E+00 0.000E+00 0.000E+00 0.000E+00
BIGSUB  13        0    2.16410E+04    26.224     9.666    21.916    13.392    52.107     0.000     0.000     0.002     0.017     0.000     0.000     0.000     0.000     0.000     0.000     0.015     0.000     0.000 .00000E+00 0.000E+00 0.000E+00 0.000E+00 0.000E+00 0.000E+00
BIGSUB  14        0    2.52740E+04    44.900    32.625    19.642     8.156    85.855     0.000     0.000     0.001     0.022     0.000     0.000     0.000     0.000     0.000     0.000     0.021     0.000     0.000 .00000E+00 0.000E+00 0.000E+00 0.000E+00 0.000E+00 0.000E+00
BIGSUB  15        0    2.42200E+03    26.224     9.666    22.027    13.240    55.182     0.000     0.000     0.008     0.020     0.000     0.000     0.000     0.000     0.000     0.000     0.012     0.000     0.000 .00000E+00 0.000E+00 0.000E+00 0.000E+00 0.000E+00 0.000E+00
BIGSUB  16        0    2.13850E+04    26.224     9.666    22.122    12.515    65.182     0.000     0.000     0.005     0.017     0.000     0.000     0.000     0.000     0.000     0.000     0.012     0.000     0.000 .00000E+00 0.000E+00 0.000E+00 0.000E+00 0.000E+00 0.000E+00
BIGSUB  17        0    2.17180E+04    44.900    32.625    19.824     8.281    78.142     0.000     0.000     0.002     0.012     0.000     0.000     0.000     0.000     0.000     0.000     0.009     0.000     0.000 .00000E+00 0.000E+00 0.000E+00 0.000E+00 0.000E+00 0.000E+00
BIGSUB  18        0    2.26090E+04    44.900    32.625    19.765     7.903    89.156     0.000     0.000     0.000     0.016     0.000     0.000     0.000     0.000     0.000     0.000     0.016     0.000     0.000 .00000E+00 0.000E+00 0.000E+00 0.000E+00 0.000E+00 0.000E+00
BIGSUB  19        0    2.25380E+04    44.900    32.625    19.942     8.234    84.913     0.000     0.000     0.001     0.026     0.000     0.000     0.000     0.000     0.000     0.000     0.026     0.000     0.000 .00000E+00 0.000E+00 0.000E+00 0.000E+00 0.000E+00 0.000E+00
BIGSUB  20        0    2.19820E+04    44.900    32.625    19.997     8.287    83.533     0.000     0.000     0.000     0.033     0.000     0.000     0.000     0.000     0.000     0.000     0.033     0.001     0.000 .00000E+00 0.000E+00 0.000E+00 0.000E+00 0.000E+00 0.000E+00
BIGSUB   1        0    3.12360E+04    40.400     3.000    69.276    39.809   105.874     0.000     0.000     0.000     0.068     0.000     0.000     0.000     0.000     0.000     0.000     0.068     0.001     0.000 .00000E+00 0.000E+00 0.000E+00 0.000E+00 0.000E+00 0.000E+00
BIGSUB   2        0    3.37400E+03    40.400     3.000    69.392    39.912   104.977     0.000     0.000     0.000     0.354     0.000     0.000     0.000     0.000     0.000     0.000     0.354     0.004     0.000 .00000E+00 0.000E+00 0.000E+00 0.000E+00 0.000E+00 0.000E+00
BIGSUB   3        0    3.14590E+04    40.400     3.000    69.274    40.119   108.342     0.000     0.000     0.000     0.085     0.000     0.000     0.000     0.000     0.000     0.000     0.085     0.001     0.000 .00000E+00 0.000E+00 0.000E+00 0.000E+00 0.000E+00 0.000E+00
BIGSUB   4        0    3.91800E+03    40.400     3.000    69.294    39.940   106.880     0.000     0.000     0.000     0.067     0.000     0.000     0.000     0.000     0.000     0.000     0.066     0.001     0.000 .00000E+00 0.000E+00 0.000E+00 0.000E+00 0.000E+00 0.000E+00
BIGSUB   5        0    3.37770E+04    40.400     3.000    69.482    40.343   107.658     0.000     0.000     0.000     0.058     0.000     0.000     0.000     0.000     0.000     0.000     0.058     0.001     0.000 .00000E+00 0.000E+00 0.000E+00 0.000E+00 0.000E+00 0.000E+00
BIGSUB   6        0    3.18250E+04    40.400     3.000    69.706    40.590   107.912     0.000     0.000     0.000     0.070     0.000     0.000     0.000     0.000     0.000     0.000     0.070     0.001     0.000 .00000E+00 0.000E+00 0.000E+00 0.000E+00 0.000E+00 0.000E+00
BIGSUB   7        0    3.14660E+04    40.400     3.000    69.727    39.114    88.785     7.320     0.000     5.449     5.462     0.000     0.000     0.000     0.000     0.000     0.000     0.013     0.000     0.440 .00000E+00 0.000E+00 0.000E+00 0.000E+00 0.000E+00 0.000E+00
BIGSUB   8        0    3.34940E+04    40.400     3.000    70.158    39.302    93.302     4.701     0.000     2.364     2.444     0.000     0.000     0.000     0.000     0.000     0.000     0.081     0.001     0.103 .00000E+00 0.000E+00 0.000E+00 0.000E+00 0.000E+00 0.000E+00
BIGSUB   9        0    3.47420E+04    44.100     0.500    61.109    31.220    82.832     0.000     0.000     0.000     0.046     0.000     0.000     0.000     0.000     0.000     0.000     0.046     0.001     0.000 .00000E+00 0.000E+00 0.000E+00 0.000E+00 0.000E+00 0.000E+00
BIGSUB  10        0    3.13380E+04    44.100     0.500    61.359    29.481    75.654     0.000     0.000     0.000     0.019     0.000     0.000     0.000     0.000     0.000     0.000     0.019     0.001     0.000 .00000E+00 0.000E+00 0.000E+00 0.000E+00 0.000E+00 0.000E+00
BIGSUB  11        0    3.24060E+04     1.524    15.721    54.749    24.606    52.583     0.000     0.000     0.003     0.022     0.000     0.000     0.000     0.000     0.000     0.000     0.019     0.000     0.000 .00000E+00 0.000E+00 0.000E+00 0.000E+00 0.000E+00 0.000E+00
BIGSUB  12        0    3.19770E+04    82.900    67.538    49.658    40.693   175.521     2.285     0.000     0.207     0.225     0.000     0.000     0.000     0.000     0.000     0.000     0.018     0.000     0.002 .00000E+00 0.000E+00 0.000E+00 0.000E+00 0.000E+00 0.000E+00
BIGSUB  13        0    3.16410E+04     1.524    15.721    54.925    23.799    45.548     0.000     0.000     0.001     0.017     0.000     0.000     0.000     0.000     0.000     0.000     0.016     0.000     0.000 .00000E+00 0.000E+00 0.000E+00 0.000E+00 0.000E+00 0.000E+00
BIGSUB  14        0    3.52740E+04    82.900    67.513    49.929    40.575   149.062    25.031     0.000     5.219     5.260     0.000     0.000     0.000     0.000     0.000     0.000     0.042     0.001     0.496 .00000E+00 0.000E+00 0.000E+00 0.000E+00 0.000E+00 0.000E+00
BIGSUB  15        0    3.42200E+03     1.524    15.721    55.089    24.184    48.237     0.000     0.000     0.003     0.016     0.000     0.000     0.000     0.000     0.000     0.000     0.013     0.000     0.000 .00000E+00 0.000E+00 0.000E+00 0.000E+00 0.000E+00 0.000E+00
BIGSUB  16        0    3.13850E+04     1.524    15.721    55.229    25.488    56.933     0.000     0.000     0.002     0.015     0.000     0.000     0.000     0.000     0.000     0.000     0.012     0.000     0.000 .00000E+00 0.000E+00 0.000E+00 0.000E+00 0.000E+00 0.000E+00
BIGSUB  17        0    3.17180E+04    82.900    67.487    50.204    40.744    96.877    69.429     0.000    11.939    11.954     0.000     0.000     0.000     0.000     0.000     0.000     0.014     0.000     0.968 .00000E+00 0.000E+00 0.000E+00 0.000E+00 0.000E+00 0.000E+00
BIGSUB  18        0    3.26090E+04    82.900    67.495    50.115    40.209   174.940     2.911     0.000     0.000     0.024     0.000     0.000     0.000     0.000     0.000     0.000     0.024     0.000     0.000 .00000E+00 0.000E+00 0.000E+00 0.000E+00 0.000E+00 0.000E+00
BIGSUB  19        0    3.25380E+04    82.900    67.470    50.383    40.771   146.735    26.120     0.000     4.970     5.088     0.000     0.000     0.000     0.000     0.000     0.000     0.118     0.002     0.408 .00000E+00 0.000E+00 0.000E+00 0.000E+00 0.000E+00 0.000E+00
BIGSUB  20        0    3.19820E+04    82.900    67.462    50.466    40.751   136.699    34.739     0.000     0.000     0.144     0.000     0.000     0.000     0.000     0.000     0.000     0.144     0.003     0.000 .00000E+00 0.000E+00 0.000E+00 0.000E+00 0.000E+00 0.000E+00
BIGSUB   1        0    4.12360E+04    69.300     3.800   105.468    52.244   114.823     7.943     0.000     4.314     4.418     0.000     0.000     0.000     0.000     0.000     0.000     0.103     0.002     0.190 .00000E+00 0.000E+00 0.000E+00 0.000E+00 0.000E+00 0.000E+00
BIGSUB   2        0    4.37400E+03    69.300     3.800   105.546    52.331   115.946     5.261     0.000     0.476     1.071     0.000     0.000     0.000     0.000     0.000     0.000     0.596     0.009     0.055 .00000E+00 0.000E+00 0.000E+00 0.000E+00 0.000E+00 0.000E+00
BIGSUB   3        0    4.14590E+04    69.300     3.800   105.466    52.708   120.613     4.093     0.000     1.874     1.996     0.000     0.000     0.000     0.000     0.000     0.000     0.122     0.002     0.168 .00000E+00 0.000E+00 0.000E+00 0.000E+00 0.000E+00 0.000E+00
BIGSUB   4        0    4.91800E+03    69.300     3.800   105.480    52.438   117.185     6.395     0.000     3.561     3.661     0.000     0.000     0.000     0.000     0.000     0.000     0.100     0.002     0.127 .00000E+00 0.000E+00 0.000E+00 0.000E+00 0.000E+00 0.000E+00
BIGSUB   5        0    4.37770E+04    69.300     3.800   105.607    52.711   120.079     4.021     0.000     0.000     0.083     0.000     0.000     0.000     0.000     0.000     0.000     0.083     0.001     0.000 .00000E+00 0.000E+00 0.000E+00 0.000E+00 0.000E+00 0.000E+00
BIGSUB   6        0    4.18250E+04    69.300     3.800   105.759    53.090   122.855     1.074     0.000     0.000     0.093     0.000     0.000     0.000     0.000     0.000     0.000     0.093     0.001     0.000 .00000E+00 0.000E+00 0.000E+00 0.000E+00 0.000E+00 0.000E+00
BIGSUB   7        0    4.14660E+04    69.300     3.800   105.773    50.966    89.923    17.152     0.000    11.248    11.263     0.000     0.000     0.000     0.000     0.000     0.000     0.015     0.000     0.857 .00000E+00 0.000E+00 0.000E+00 0.000E+00 0.000E+00 0.000E+00
BIGSUB   8        0    4.34940E+04    69.300     3.800   106.061    51.235    96.307    14.861     0.000     7.219     7.336     0.000     0.000     0.000     0.000     0.000     0.000     0.117     0.002     0.272 .00000E+00 0.000E+00 0.000E+00 0.000E+00 0.000E+00 0.000E+00
BIGSUB   9        0    4.47420E+04    55.600     0.000    96.776    38.431    99.912     0.000     0.000     0.000     0.055     0.000     0.000     0.000     0.000     0.000     0.000     0.055     0.001     0.000 .00000E+00 0.000E+00 0.000E+00 0.000E+00 0.000E+00 0.000E+00
BIGSUB  10        0    4.13380E+04    55.600     0.000    96.948    36.024    95.165     0.000     0.000     0.000     0.024     0.000     0.000     0.000     0.000     0.000     0.000     0.024     0.001     0.000 .00000E+00 0.000E+00 0.000E+00 0.000E+00 0.000E+00 0.000E+00
BIGSUB  11        0    4.24060E+04    57.529     0.000    88.662    37.286    72.766     0.000     0.000     0.001     0.022     0.000     0.000     0.000     0.000     0.000     0.000     0.021     0.000     0.000 .00000E+00 0.000E+00 0.000E+00 0.000E+00 0.000E+00 0.000E+00
BIGSUB  12        0    4.19770E+04    64.700     0.000    85.056    43.271   175.124    21.756     0.000     4.181     4.205     0.000     0.000     0.000     0.000     0.000     0.000     0.024     0.000     0.524 .00000E+00 0.000E+00 0.000E+00 0.000E+00 0.000E+00 0.000E+00
BIGSUB  13        0    4.16410E+04    57.529     0.000    88.783    34.714    68.334     0.000     0.000     0.000     0.016     0.000     0.000     0.000     0.000     0.000     0.000     0.015     0.000     0.000 .00000E+00 0.000E+00 0.000E+00 0.000E+00 0.000E+00 0.000E+00
BIGSUB  14        0    4.52740E+04    64.700     0.000    85.253    41.434   149.578    22.612     0.000     7.923     7.984     0.000     0.000     0.000     0.000     0.000     0.000     0.061     0.001     0.698 .00000E+00 0.000E+00 0.000E+00 0.000E+00 0.000E+00 0.000E+00
BIGSUB  15        0    4.42200E+03    57.529     0.000    88.895    35.764    69.967     0.000     0.000     0.001     0.015     0.000     0.000     0.000     0.000     0.000     0.000     0.014     0.000     0.000 .00000E+00 0.000E+00 0.000E+00 0.000E+00 0.000E+00 0.000E+00
BIGSUB  16        0    4.13850E+04    57.529     0.000    88.991    39.498    74.923     0.000     0.000     0.001     0.015     0.000     0.000     0.000     0.000     0.000     0.000     0.014     0.000     0.000 .00000E+00 0.000E+00 0.000E+00 0.000E+00 0.000E+00 0.000E+00
BIGSUB  17        0    4.17180E+04    64.700     0.000    85.453    37.799    99.720    24.017     0.000    17.994    18.012     0.000     0.000     0.000     0.000     0.000     0.000     0.018     0.000     1.307 .00000E+00 0.000E+00 0.000E+00 0.000E+00 0.000E+00 0.000E+00
BIGSUB  18        0    4.26090E+04    64.700     0.000    85.389    43.305   174.414    21.811     0.000     0.000     0.035     0.000     0.000     0.000     0.000     0.000     0.000     0.035     0.001     0.000 .00000E+00 0.000E+00 0.000E+00 0.000E+00 0.000E+00 0.000E+00
BIGSUB  19        0    4.25380E+04    64.700     0.000    85.581    41.210   146.826    23.220     0.000     7.397     7.545     0.000     0.000     0.000     0.000     0.000     0.000     0.148     0.002     0.594 .00000E+00 0.000E+00 0.000E+00 0.000E+00 0.000E+00 0.000E+00
BIGSUB  20        0    4.19820E+04    64.700     0.000    85.641    40.463   137.075    23.626     0.000     0.000     0.181     0.000     0.000     0.000     0.000     0.000     0.000     0.181     0.003     0.000 .00000E+00 0.000E+00 0.000E+00 0.000E+00 0.000E+00 0.000E+00
BIGSUB   1        0    5.12360E+04    14.600     0.000   160.727    43.851    85.556     0.000     0.000     2.043     2.117     0.000     0.000     0.000     0.000     0.000     0.000     0.075     0.001     0.000 .00000E+00 0.000E+00 0.000E+00 0.000E+00 0.000E+00 0.000E+00
BIGSUB   2        0    5.37400E+03    14.600     0.000   160.753    43.810    86.660     0.000     0.000     0.508     0.770     0.000     0.000     0.000     0.000     0.000     0.000     0.261     0.002     0.042 .00000E+00 0.000E+00 0.000E+00 0.000E+00 0.000E+00 0.000E+00
BIGSUB   3        0    5.14590E+04    14.600     0.000   160.727    44.183    91.007     0.000     0.000     0.985     1.083     0.000     0.000     0.000     0.000     0.000     0.000     0.098     0.001     0.000 .00000E+00 0.000E+00 0.000E+00 0.000E+00 0.000E+00 0.000E+00
BIGSUB   4        0    5.91800E+03    14.600     0.000   160.731    43.992    87.778     0.000     0.000     1.573     1.646     0.000     0.000     0.000     0.000     0.000     0.000     0.073     0.001     0.000 .00000E+00 0.000E+00 0.000E+00 0.000E+00 0.000E+00 0.000E+00
BIGSUB   5        0    5.37770E+04    14.600     0.000   160.773    44.150    90.514     0.000     0.000     0.000     0.067     0.000     0.000     0.000     0.000     0.000     0.000     0.067     0.001     0.000 .00000E+00 0.000E+00 0.000E+00 0.000E+00 0.000E+00 0.000E+00
BIGSUB   6        0    5.18250E+04    14.600     0.000   160.822    45.230    92.206     0.000     0.000     0.000     0.088     0.000     0.000     0.000     0.000     0.000     0.000     0.088     0.001     0.000 .00000E+00 0.000E+00 0.000E+00 0.000E+00 0.000E+00 0.000E+00
BIGSUB   7        0    5.14660E+04    14.600     0.000   160.827    41.684    62.836     0.000     0.000     5.546     5.561     0.000     0.000     0.000     0.000     0.000     0.000     0.015     0.000     0.000 .00000E+00 0.000E+00 0.000E+00 0.000E+00 0.000E+00 0.000E+00
BIGSUB   8        0    5.34940E+04    14.600     0.000   160.916    44.864    66.025     0.000     0.000     3.301     3.390     0.000     0.000     0.000     0.000     0.000     0.000     0.089     0.001     0.000 .00000E+00 0.000E+00 0.000E+00 0.000E+00 0.000E+00 0.000E+00
BIGSUB   9        0    5.47420E+04    22.800     0.000   152.008    47.882    74.802     0.000     0.000     0.000     0.054     0.000     0.000     0.000     0.000     0.000     0.000     0.054     0.001     0.000 .00000E+00 0.000E+00 0.000E+00 0.000E+00 0.000E+00 0.000E+00
BIGSUB  10        0    5.13380E+04    22.800     0.000   152.061    46.465    71.479     0.000     0.000     0.000     0.026     0.000     0.000     0.000     0.000     0.000     0.000     0.026     0.001     0.000 .00000E+00 0.000E+00 0.000E+00 0.000E+00 0.000E+00 0.000E+00
BIGSUB  11        0    5.24060E+04    42.426     0.000   127.176    35.440    79.725     0.000     0.000     0.000     0.024     0.000     0.000     0.000     0.000     0.000     0.000     0.023     0.000     0.000 .00000E+00 0.000E+00 0.000E+00 0.000E+00 0.000E+00 0.000E+00
BIGSUB  12        0    5.19770E+04     7.800     0.000   138.410    43.739   139.175     0.008     0.000     4.353     4.379     0.000     0.000     0.000     0.000     0.000     0.000     0.025     0.000     0.434 .00000E+00 0.000E+00 0.000E+00 0.000E+00 0.000E+00 0.000E+00
BIGSUB  13        0    5.16410E+04    42.426     0.000   127.208    32.636    78.111     0.000     0.000     0.000     0.016     0.000     0.000     0.000     0.000     0.000     0.000     0.016     0.000     0.000 .00000E+00 0.000E+00 0.000E+00 0.000E+00 0.000E+00 0.000E+00
BIGSUB  14        0    5.52740E+04     7.800     0.000   138.467    40.709   116.298     0.365     0.000     6.370     6.430     0.000     0.000     0.000     0.000     0.000     0.000     0.061     0.001     0.198 .00000E+00 0.000E+00 0.000E+00 0.000E+00 0.000E+00 0.000E+00
BIGSUB  15        0    5.42200E+03    42.426     0.000   127.236    33.643    78.735     0.000     0.000     0.000     0.015     0.000     0.000     0.000     0.000     0.000     0.000     0.015     0.000     0.000 .00000E+00 0.000E+00 0.000E+00 0.000E+00 0.000E+00 0.000E+00
BIGSUB  16        0    5.13850E+04    42.426     0.000   127.259    37.497    79.833     0.000     0.000     0.000     0.016     0.000     0.000     0.000     0.000     0.000     0.000     0.016     0.000     0.000 .00000E+00 0.000E+00 0.000E+00 0.000E+00 0.000E+00 0.000E+00
BIGSUB  17        0    5.17180E+04     7.800     0.000   138.520    35.790    70.206     1.522     0.000    15.858    15.876     0.000     0.000     0.000     0.000     0.000     0.000     0.018     0.000     0.575 .00000E+00 0.000E+00 0.000E+00 0.000E+00 0.000E+00 0.000E+00
BIGSUB  18        0    5.26090E+04     7.800     0.000   138.503    42.964   139.247     0.000     0.000     0.000     0.036     0.000     0.000     0.000     0.000     0.000     0.000     0.036     0.001     0.000 .00000E+00 0.000E+00 0.000E+00 0.000E+00 0.000E+00 0.000E+00
BIGSUB  19        0    5.25380E+04     7.800     0.000   138.552    39.963   114.454     0.202     0.000     6.572     6.680     0.000     0.000     0.000     0.000     0.000     0.000     0.108     0.002     0.282 .00000E+00 0.000E+00 0.000E+00 0.000E+00 0.000E+00 0.000E+00
BIGSUB  20        0    5.19820E+04     7.800     0.000   138.566    38.911   105.682     0.273     0.000     0.000     0.132     0.000     0.000     0.000     0.000     0.000     0.000     0.132     0.002     0.000 .00000E+00 0.000E+00 0.000E+00 0.000E+00 0.000E+00 0.000E+00
BIGSUB   1        0    6.12360E+04     3.200     0.000   209.138    71.591    17.162     0.000     0.000     0.734     0.774     0.000     0.000     0.000     0.000     0.000     0.000     0.040     0.001     0.000 .00000E+00 0.000E+00 0.000E+00 0.000E+00 0.000E+00 0.000E+00
BIGSUB   2        0    6.37400E+03     3.200     0.000   209.116    71.834    18.010     0.000     0.000     0.417     0.486     0.000     0.000     0.000     0.000     0.000     0.000     0.069     0.001     0.011 .00000E+00 0.000E+00 0.000E+00 0.000E+00 0.000E+00 0.000E+00
BIGSUB   3        0    6.14590E+04     3.200     0.000   209.138    73.789    20.414     0.000     0.000     0.355     0.418     0.000     0.000     0.000     0.000     0.000     0.000     0.063     0.001     0.000 .00000E+00 0.000E+00 0.000E+00 0.000E+00 0.000E+00 0.000E+00
BIGSUB   4        0    6.91800E+03     3.200     0.000   209.135    72.503    18.472     0.000     0.000     0.555     0.595     0.000     0.000     0.000     0.000     0.000     0.000     0.040     0.001     0.000 .00000E+00 0.000E+00 0.000E+00 0.000E+00 0.000E+00 0.000E+00
BIGSUB   5        0    6.37770E+04     3.200     0.000   209.098    73.380    20.332     0.000     0.000     0.000     0.042     0.000     0.000     0.000     0.000     0.000     0.000     0.042     0.000     0.000 .00000E+00 0.000E+00 0.000E+00 0.000E+00 0.000E+00 0.000E+00
BIGSUB   6        0    6.18250E+04     3.200     0.000   209.052    74.130    21.273     0.000     0.000     0.000     0.067     0.000     0.000     0.000     0.000     0.000     0.000     0.067     0.001     0.000 .00000E+00 0.000E+00 0.000E+00 0.000E+00 0.000E+00 0.000E+00
BIGSUB   7        0    6.14660E+04     3.200     0.000   209.048    56.194     9.842     0.000     0.000     2.001     2.015     0.000     0.000     0.000     0.000     0.000     0.000     0.014     0.000     0.000 .00000E+00 0.000E+00 0.000E+00 0.000E+00 0.000E+00 0.000E+00
BIGSUB   8        0    6.34940E+04     3.200     0.000   208.953    58.803    10.418     0.000     0.000     1.191     1.244     0.000     0.000     0.000     0.000     0.000     0.000     0.052     0.001     0.000 .00000E+00 0.000E+00 0.000E+00 0.000E+00 0.000E+00 0.000E+00
BIGSUB   9        0    6.47420E+04     0.000     0.000   194.207    46.998    27.804     0.000     0.000     0.000     0.030     0.000     0.000     0.000     0.000     0.000     0.000     0.030     0.000     0.000 .00000E+00 0.000E+00 0.000E+00 0.000E+00 0.000E+00 0.000E+00
BIGSUB  10        0    6.13380E+04     0.000     0.000   194.144    44.709    26.771     0.000     0.000     0.000     0.023     0.000     0.000     0.000     0.000     0.000     0.000     0.023     0.000     0.000 .00000E+00 0.000E+00 0.000E+00 0.000E+00 0.000E+00 0.000E+00
BIGSUB  11        0    6.24060E+04     0.000     0.000   163.238    50.664    29.061     0.000     0.000     0.000     0.023     0.000     0.000     0.000     0.000     0.000     0.000     0.023     0.000     0.000 .00000E+00 0.000E+00 0.000E+00 0.000E+00 0.000E+00 0.000E+00
BIGSUB  12        0    6.19770E+04     0.000     0.000   178.358    55.594    83.581     0.000     0.000     2.325     2.346     0.000     0.000     0.000     0.000     0.000     0.000     0.021     0.000     0.000 .00000E+00 0.000E+00 0.000E+00 0.000E+00 0.000E+00 0.000E+00
BIGSUB  13        0    6.16410E+04     0.000     0.000   163.194    50.973    27.138     0.000     0.000     0.000     0.015     0.000     0.000     0.000     0.000     0.000     0.000     0.015     0.000     0.000 .00000E+00 0.000E+00 0.000E+00 0.000E+00 0.000E+00 0.000E+00
BIGSUB  14        0    6.52740E+04     0.000     0.000   178.273    51.739    64.559     0.000     0.000     2.400     2.449     0.000     0.000     0.000     0.000     0.000     0.000     0.049     0.001     0.000 .00000E+00 0.000E+00 0.000E+00 0.000E+00 0.000E+00 0.000E+00
BIGSUB  15        0    6.42200E+03     0.000     0.000   163.150    49.510    29.225     0.000     0.000     0.000     0.014     0.000     0.000     0.000     0.000     0.000     0.000     0.014     0.000     0.000 .00000E+00 0.000E+00 0.000E+00 0.000E+00 0.000E+00 0.000E+00
BIGSUB  16        0    6.13850E+04     0.000     0.000   163.112    48.750    31.083     0.000     0.000     0.000     0.015     0.000     0.000     0.000     0.000     0.000     0.000     0.015     0.000     0.000 .00000E+00 0.000E+00 0.000E+00 0.000E+00 0.000E+00 0.000E+00
BIGSUB  17        0    6.17180E+04     0.000     0.000   178.180    47.298    22.908     0.000     0.000     6.349     6.365     0.000     0.000     0.000     0.000     0.000     0.000     0.016     0.000     0.000 .00000E+00 0.000E+00 0.000E+00 0.000E+00 0.000E+00 0.000E+00
BIGSUB  18        0    6.26090E+04     0.000     0.000   178.211    53.290    85.958     0.000     0.000     0.000     0.031     0.000     0.000     0.000     0.000     0.000     0.000     0.031     0.001     0.000 .00000E+00 0.000E+00 0.000E+00 0.000E+00 0.000E+00 0.000E+00
BIGSUB  19        0    6.25380E+04     0.000     0.000   178.116    51.518    62.936     0.000     0.000     2.652     2.706     0.000     0.000     0.000     0.000     0.000     0.000     0.054     0.001     0.000 .00000E+00 0.000E+00 0.000E+00 0.000E+00 0.000E+00 0.000E+00
BIGSUB  20        0    6.19820E+04     0.000     0.000   178.086    50.894    54.789     0.000     0.000     0.000     0.066     0.000     0.000     0.000     0.000     0.000     0.000     0.066     0.001     0.000 .00000E+00 0.000E+00 0.000E+00 0.000E+00 0.000E+00 0.000E+00
BIGSUB   1        0    7.12360E+04     0.000     0.000   212.019     9.307     7.855     0.000     0.000     0.267     0.292     0.000     0.000     0.000     0.000     0.000     0.000     0.024     0.000     0.000 .00000E+00 0.000E+00 0.000E+00 0.000E+00 0.000E+00 0.000E+00
BIGSUB   2        0    7.37400E+03     0.000     0.000   212.020     9.655     8.355     0.000     0.000     0.177     0.215     0.000     0.000     0.000     0.000     0.000     0.000     0.038     0.001     0.000 .00000E+00 0.000E+00 0.000E+00 0.000E+00 0.000E+00 0.000E+00
BIGSUB   3        0    7.14590E+04     0.000     0.000   212.019    10.838     9.576     0.000     0.000     0.138     0.184     0.000     0.000     0.000     0.000     0.000     0.000     0.047     0.001     0.000 .00000E+00 0.000E+00 0.000E+00 0.000E+00 0.000E+00 0.000E+00
BIGSUB   4        0    7.91800E+03     0.000     0.000   212.019     9.928     8.544     0.000     0.000     0.215     0.241     0.000     0.000     0.000     0.000     0.000     0.000     0.025     0.000     0.000 .00000E+00 0.000E+00 0.000E+00 0.000E+00 0.000E+00 0.000E+00
BIGSUB   5        0    7.37770E+04     0.000     0.000   212.020    10.747     9.585     0.000     0.000     0.000     0.030     0.000     0.000     0.000     0.000     0.000     0.000     0.030     0.000     0.000 .00000E+00 0.000E+00 0.000E+00 0.000E+00 0.000E+00 0.000E+00
BIGSUB   6        0    7.18250E+04     0.000     0.000   212.020    11.136    10.137     0.000     0.000     0.000     0.054     0.000     0.000     0.000     0.000     0.000     0.000     0.054     0.001     0.000 .00000E+00 0.000E+00 0.000E+00 0.000E+00 0.000E+00 0.000E+00
BIGSUB   7        0    7.14660E+04     0.000     0.000   212.020     5.803     4.039     0.000     0.000     0.775     0.788     0.000     0.000     0.000     0.000     0.000     0.000     0.013     0.000     0.000 .00000E+00 0.000E+00 0.000E+00 0.000E+00 0.000E+00 0.000E+00
BIGSUB   8        0    7.34940E+04     0.000     0.000   212.012     5.814     4.605     0.000     0.000     0.461     0.497     0.000     0.000     0.000     0.000     0.000     0.000     0.036     0.001     0.000 .00000E+00 0.000E+00 0.000E+00 0.000E+00 0.000E+00 0.000E+00
BIGSUB   9        0    7.47420E+04     1.000     0.000   196.409    17.028    11.776     0.000     0.000     0.000     0.017     0.000     0.000     0.000     0.000     0.000     0.000     0.017     0.000     0.000 .00000E+00 0.000E+00 0.000E+00 0.000E+00 0.000E+00 0.000E+00
BIGSUB  10        0    7.13380E+04     1.000     0.000   196.401    21.452     6.319     0.000     0.000     0.000     0.021     0.000     0.000     0.000     0.000     0.000     0.000     0.021     0.000     0.000 .00000E+00 0.000E+00 0.000E+00 0.000E+00 0.000E+00 0.000E+00
BIGSUB  11        0    7.24060E+04     9.668     0.000   180.777    25.956    12.770     0.000     0.000     0.000     0.021     0.000     0.000     0.000     0.000     0.000     0.000     0.020     0.000     0.000 .00000E+00 0.000E+00 0.000E+00 0.000E+00 0.000E+00 0.000E+00
BIGSUB  12        0    7.19770E+04     0.200     0.000   186.728    66.662    17.120     0.000     0.000     0.901     0.920     0.000     0.000     0.000     0.000     0.000     0.000     0.019     0.000     0.000 .00000E+00 0.000E+00 0.000E+00 0.000E+00 0.000E+00 0.000E+00
BIGSUB  13        0    7.16410E+04     9.668     0.000   180.767    29.423     7.382     0.000     0.000     0.000     0.014     0.000     0.000     0.000     0.000     0.000     0.000     0.014     0.000     0.000 .00000E+00 0.000E+00 0.000E+00 0.000E+00 0.000E+00 0.000E+00
BIGSUB  14        0    7.52740E+04     0.200     0.000   186.711    51.383    13.376     0.000     0.000     0.929     0.972     0.000     0.000     0.000     0.000     0.000     0.000     0.042     0.001     0.000 .00000E+00 0.000E+00 0.000E+00 0.000E+00 0.000E+00 0.000E+00
BIGSUB  15        0    7.42200E+03     9.668     0.000   180.756    29.177     9.715     0.000     0.000     0.000     0.013     0.000     0.000     0.000     0.000     0.000     0.000     0.013     0.000     0.000 .00000E+00 0.000E+00 0.000E+00 0.000E+00 0.000E+00 0.000E+00
BIGSUB  16        0    7.13850E+04     9.668     0.000   180.745    23.851    16.898     0.000     0.000     0.000     0.014     0.000     0.000     0.000     0.000     0.000     0.000     0.014     0.000     0.000 .00000E+00 0.000E+00 0.000E+00 0.000E+00 0.000E+00 0.000E+00
BIGSUB  17        0    7.17180E+04     0.200     0.000   186.687    17.248     5.859     0.000     0.000     2.459     2.475     0.000     0.000     0.000     0.000     0.000     0.000     0.015     0.000     0.000 .00000E+00 0.000E+00 0.000E+00 0.000E+00 0.000E+00 0.000E+00
BIGSUB  18        0    7.26090E+04     0.200     0.000   186.696    68.682    17.476     0.000     0.000     0.000     0.028     0.000     0.000     0.000     0.000     0.000     0.000     0.028     0.001     0.000 .00000E+00 0.000E+00 0.000E+00 0.000E+00 0.000E+00 0.000E+00
BIGSUB  19        0    7.25380E+04     0.200     0.000   186.668    50.055    13.081     0.000     0.000     1.027     1.057     0.000     0.000     0.000     0.000     0.000     0.000     0.030     0.000     0.000 .00000E+00 0.000E+00 0.000E+00 0.000E+00 0.000E+00 0.000E+00
BIGSUB  20        0    7.19820E+04     0.200     0.000   186.659    43.464    11.525     0.000     0.000     0.000     0.038     0.000     0.000     0.000     0.000     0.000     0.000     0.038     0.001     0.000 .00000E+00 0.000E+00 0.000E+00 0.000E+00 0.000E+00 0.000E+00
BIGSUB   1        0    8.12360E+04     0.000     0.000   189.929     2.233     5.622     0.000     0.000     0.098     0.113     0.000     0.000     0.000     0.000     0.000     0.000     0.015     0.000     0.000 .00000E+00 0.000E+00 0.000E+00 0.000E+00 0.000E+00 0.000E+00
BIGSUB   2        0    8.37400E+03     0.000     0.000   190.021     2.301     6.054     0.000     0.000     0.065     0.087     0.000     0.000     0.000     0.000     0.000     0.000     0.022     0.000     0.000 .00000E+00 0.000E+00 0.000E+00 0.000E+00 0.000E+00 0.000E+00
BIGSUB   3        0    8.14590E+04     0.000     0.000   189.927     2.480     7.096     0.000     0.000     0.051     0.086     0.000     0.000     0.000     0.000     0.000     0.000     0.035     0.000     0.000 .00000E+00 0.000E+00 0.000E+00 0.000E+00 0.000E+00 0.000E+00
BIGSUB   4        0    8.91800E+03     0.000     0.000   189.943     2.333     6.211     0.000     0.000     0.079     0.096     0.000     0.000     0.000     0.000     0.000     0.000     0.016     0.000     0.000 .00000E+00 0.000E+00 0.000E+00 0.000E+00 0.000E+00 0.000E+00
BIGSUB   5        0    8.37770E+04     0.000     0.000   190.092     2.477     7.108     0.000     0.000     0.000     0.021     0.000     0.000     0.000     0.000     0.000     0.000     0.021     0.000     0.000 .00000E+00 0.000E+00 0.000E+00 0.000E+00 0.000E+00 0.000E+00
BIGSUB   6        0    8.18250E+04     0.000     0.000   190.268     2.600     7.537     0.000     0.000     0.000     0.041     0.000     0.000     0.000     0.000     0.000     0.000     0.041     0.000     0.000 .00000E+00 0.000E+00 0.000E+00 0.000E+00 0.000E+00 0.000E+00
BIGSUB   7        0    8.14660E+04     0.000     0.000   190.284     1.622     2.417     0.000     0.000     0.285     0.297     0.000     0.000     0.000     0.000     0.000     0.000     0.012     0.000     0.000 .00000E+00 0.000E+00 0.000E+00 0.000E+00 0.000E+00 0.000E+00
BIGSUB   8        0    8.34940E+04     0.000     0.000   190.617     1.651     2.954     0.000     0.000     0.170     0.195     0.000     0.000     0.000     0.000     0.000     0.000     0.025     0.000     0.000 .00000E+00 0.000E+00 0.000E+00 0.000E+00 0.000E+00 0.000E+00
BIGSUB   9        0    8.47420E+04     0.500     0.000   187.150     4.101     8.175     0.000     0.000     0.000     0.011     0.000     0.000     0.000     0.000     0.000     0.000     0.011     0.000     0.000 .00000E+00 0.000E+00 0.000E+00 0.000E+00 0.000E+00 0.000E+00
BIGSUB  10        0    8.13380E+04     0.500     0.000   187.362     3.172     3.648     0.000     0.000     0.000     0.019     0.000     0.000     0.000     0.000     0.000     0.000     0.019     0.000     0.000 .00000E+00 0.000E+00 0.000E+00 0.000E+00 0.000E+00 0.000E+00
BIGSUB  11        0    8.24060E+04     0.000     0.000   176.056     5.296     7.474     0.000     0.000     0.000     0.018     0.000     0.000     0.000     0.000     0.000     0.000     0.018     0.000     0.000 .00000E+00 0.000E+00 0.000E+00 0.000E+00 0.000E+00 0.000E+00
BIGSUB  12        0    8.19770E+04     0.000     0.000   180.679     6.030    11.090     0.000     0.000     0.331     0.348     0.000     0.000     0.000     0.000     0.000     0.000     0.017     0.000     0.000 .00000E+00 0.000E+00 0.000E+00 0.000E+00 0.000E+00 0.000E+00
BIGSUB  13        0    8.16410E+04     0.000     0.000   176.210     3.587     3.795     0.000     0.000     0.000     0.013     0.000     0.000     0.000     0.000     0.000     0.000     0.013     0.000     0.000 .00000E+00 0.000E+00 0.000E+00 0.000E+00 0.000E+00 0.000E+00
BIGSUB  14        0    8.52740E+04     0.000     0.000   180.945     4.892     8.484     0.000     0.000     0.342     0.377     0.000     0.000     0.000     0.000     0.000     0.000     0.035     0.001     0.000 .00000E+00 0.000E+00 0.000E+00 0.000E+00 0.000E+00 0.000E+00
BIGSUB  15        0    8.42200E+03     0.000     0.000   176.352     4.303     5.411     0.000     0.000     0.000     0.012     0.000     0.000     0.000     0.000     0.000     0.000     0.012     0.000     0.000 .00000E+00 0.000E+00 0.000E+00 0.000E+00 0.000E+00 0.000E+00
BIGSUB  16        0    8.13850E+04     0.000     0.000   176.472     6.570    10.328     0.000     0.000     0.000     0.012     0.000     0.000     0.000     0.000     0.000     0.000     0.012     0.000     0.000 .00000E+00 0.000E+00 0.000E+00 0.000E+00 0.000E+00 0.000E+00
BIGSUB  17        0    8.17180E+04     0.000     0.000   181.211     2.445     3.414     0.000     0.000     0.905     0.919     0.000     0.000     0.000     0.000     0.000     0.000     0.014     0.000     0.000 .00000E+00 0.000E+00 0.000E+00 0.000E+00 0.000E+00 0.000E+00
BIGSUB  18        0    8.26090E+04     0.000     0.000   181.126     6.300    11.176     0.000     0.000     0.000     0.024     0.000     0.000     0.000     0.000     0.000     0.000     0.024     0.000     0.000 .00000E+00 0.000E+00 0.000E+00 0.000E+00 0.000E+00 0.000E+00
BIGSUB  19        0    8.25380E+04     0.000     0.000   181.382     4.800     8.281     0.000     0.000     0.378     0.396     0.000     0.000     0.000     0.000     0.000     0.000     0.018     0.000     0.000 .00000E+00 0.000E+00 0.000E+00 0.000E+00 0.000E+00 0.000E+00
BIGSUB  20        0    8.19820E+04     0.000     0.000   181.460     4.268     7.257     0.000     0.000     0.000     0.023     0.000     0.000     0.000     0.000     0.000     0.000     0.023     0.001     0.000 .00000E+00 0.000E+00 0.000E+00 0.000E+00 0.000E+00 0.000E+00
BIGSUB   1        0    9.12360E+04     0.000     0.000   154.252     1.015     4.607     0.000     0.000     0.035     0.046     0.000     0.000     0.000     0.000     0.000     0.000     0.010     0.000     0.000 .00000E+00 0.000E+00 0.000E+00 0.000E+00 0.000E+00 0.000E+00
BIGSUB   2        0    9.37400E+03     0.000     0.000   154.449     1.034     5.021     0.000     0.000     0.023     0.041     0.000     0.000     0.000     0.000     0.000     0.000     0.018     0.000     0.000 .00000E+00 0.000E+00 0.000E+00 0.000E+00 0.000E+00 0.000E+00
BIGSUB   3        0    9.14590E+04     0.000     0.000   154.247     1.080     6.016     0.000     0.000     0.018     0.045     0.000     0.000     0.000     0.000     0.000     0.000     0.027     0.000     0.000 .00000E+00 0.000E+00 0.000E+00 0.000E+00 0.000E+00 0.000E+00
BIGSUB   4        0    9.91800E+03     0.000     0.000   154.282     1.041     5.170     0.000     0.000     0.029     0.040     0.000     0.000     0.000     0.000     0.000     0.000     0.012     0.000     0.000 .00000E+00 0.000E+00 0.000E+00 0.000E+00 0.000E+00 0.000E+00
BIGSUB   5        0    9.37770E+04     0.000     0.000   154.602     1.082     6.026     0.000     0.000     0.000     0.016     0.000     0.000     0.000     0.000     0.000     0.000     0.016     0.000     0.000 .00000E+00 0.000E+00 0.000E+00 0.000E+00 0.000E+00 0.000E+00
BIGSUB   6        0    9.18250E+04     0.000     0.000   154.982     1.129     6.408     0.000     0.000     0.000     0.031     0.000     0.000     0.000     0.000     0.000     0.000     0.031     0.000     0.000 .00000E+00 0.000E+00 0.000E+00 0.000E+00 0.000E+00 0.000E+00
BIGSUB   7        0    9.14660E+04     0.000     0.000   155.018     0.857     1.560     0.000     0.000     0.103     0.113     0.000     0.000     0.000     0.000     0.000     0.000     0.010     0.000     0.000 .00000E+00 0.000E+00 0.000E+00 0.000E+00 0.000E+00 0.000E+00
BIGSUB   8        0    9.34940E+04     0.000     0.000   155.749     0.858     2.097     0.000     0.000     0.061     0.080     0.000     0.000     0.000     0.000     0.000     0.000     0.019     0.000     0.000 .00000E+00 0.000E+00 0.000E+00 0.000E+00 0.000E+00 0.000E+00
BIGSUB   9        0    9.47420E+04     0.000     0.000   151.075     1.676     6.499     0.000     0.000     0.000     0.007     0.000     0.000     0.000     0.000     0.000     0.000     0.007     0.000     0.000 .00000E+00 0.000E+00 0.000E+00 0.000E+00 0.000E+00 0.000E+00
BIGSUB  10        0    9.13380E+04     0.000     0.000   151.541     1.247     2.401     0.000     0.000     0.000     0.016     0.000     0.000     0.000     0.000     0.000     0.000     0.016     0.000     0.000 .00000E+00 0.000E+00 0.000E+00 0.000E+00 0.000E+00 0.000E+00
BIGSUB  11        0    9.24060E+04     1.380     0.000   121.829     2.644     6.210     0.000     0.000     0.000     0.015     0.000     0.000     0.000     0.000     0.000     0.000     0.015     0.000     0.000 .00000E+00 0.000E+00 0.000E+00 0.000E+00 0.000E+00 0.000E+00
BIGSUB  12        0    9.19770E+04     0.000     0.000   137.300     2.069     9.021     0.000     0.000     0.120     0.134     0.000     0.000     0.000     0.000     0.000     0.000     0.014     0.000     0.000 .00000E+00 0.000E+00 0.000E+00 0.000E+00 0.000E+00 0.000E+00
BIGSUB  13        0    9.16410E+04     1.380     0.000   122.115     2.392     2.783     0.000     0.000     0.000     0.012     0.000     0.000     0.000     0.000     0.000     0.000     0.012     0.000     0.000 .00000E+00 0.000E+00 0.000E+00 0.000E+00 0.000E+00 0.000E+00
BIGSUB  14        0    9.52740E+04     0.000     0.000   137.661     1.758     6.726     0.000     0.000     0.123     0.152     0.000     0.000     0.000     0.000     0.000     0.000     0.028     0.001     0.000 .00000E+00 0.000E+00 0.000E+00 0.000E+00 0.000E+00 0.000E+00
BIGSUB  15        0    9.42200E+03     1.380     0.000   122.381     2.506     4.286     0.000     0.000     0.000     0.010     0.000     0.000     0.000     0.000     0.000     0.000     0.010     0.000     0.000 .00000E+00 0.000E+00 0.000E+00 0.000E+00 0.000E+00 0.000E+00
BIGSUB  16        0    9.13850E+04     1.380     0.000   122.608     2.842     8.866     0.000     0.000     0.000     0.010     0.000     0.000     0.000     0.000     0.000     0.000     0.010     0.000     0.000 .00000E+00 0.000E+00 0.000E+00 0.000E+00 0.000E+00 0.000E+00
BIGSUB  17        0    9.17180E+04     0.000     0.000   138.230     1.094     2.321     0.000     0.000     0.326     0.339     0.000     0.000     0.000     0.000     0.000     0.000     0.013     0.000     0.000 .00000E+00 0.000E+00 0.000E+00 0.000E+00 0.000E+00 0.000E+00
BIGSUB  18        0    9.26090E+04     0.000     0.000   138.047     2.123     9.053     0.000     0.000     0.000     0.020     0.000     0.000     0.000     0.000     0.000     0.000     0.020     0.000     0.000 .00000E+00 0.000E+00 0.000E+00 0.000E+00 0.000E+00 0.000E+00
BIGSUB  19        0    9.25380E+04     0.000     0.000   138.599     1.740     6.540     0.000     0.000     0.136     0.148     0.000     0.000     0.000     0.000     0.000     0.000     0.012     0.000     0.000 .00000E+00 0.000E+00 0.000E+00 0.000E+00 0.000E+00 0.000E+00
BIGSUB  20        0    9.19820E+04     0.000     0.000   138.769     1.604     5.653     0.000     0.000     0.000     0.016     0.000     0.000     0.000     0.000     0.000     0.000     0.016     0.001     0.000 .00000E+00 0.000E+00 0.000E+00 0.000E+00 0.000E+00 0.000E+00
BIGSUB   1        0   10.12360E+04    17.900     0.000    88.216     9.709    12.776     0.000     0.000     0.014     0.028     0.000     0.000     0.000     0.000     0.000     0.000     0.014     0.000     0.000 .00000E+00 0.000E+00 0.000E+00 0.000E+00 0.000E+00 0.000E+00
BIGSUB   2        0   10.37400E+03    17.900     0.000    88.421     9.719    13.098     0.000     0.000     0.009     0.082     0.000     0.000     0.000     0.000     0.000     0.000     0.072     0.001     0.000 .00000E+00 0.000E+00 0.000E+00 0.000E+00 0.000E+00 0.000E+00
BIGSUB   3        0   10.14590E+04    17.900     0.000    88.212     9.744    14.140     0.000     0.000     0.007     0.037     0.000     0.000     0.000     0.000     0.000     0.000     0.030     0.000     0.000 .00000E+00 0.000E+00 0.000E+00 0.000E+00 0.000E+00 0.000E+00
BIGSUB   4        0   10.91800E+03    17.900     0.000    88.247     9.725    13.323     0.000     0.000     0.011     0.026     0.000     0.000     0.000     0.000     0.000     0.000     0.015     0.000     0.000 .00000E+00 0.000E+00 0.000E+00 0.000E+00 0.000E+00 0.000E+00
BIGSUB   5        0   10.37770E+04    17.900     0.000    88.580     9.770    14.135     0.000     0.000     0.000     0.017     0.000     0.000     0.000     0.000     0.000     0.000     0.017     0.000     0.000 .00000E+00 0.000E+00 0.000E+00 0.000E+00 0.000E+00 0.000E+00
BIGSUB   6        0   10.18250E+04    17.900     0.000    88.976     9.826    14.453     0.000     0.000     0.000     0.028     0.000     0.000     0.000     0.000     0.000     0.000     0.028     0.000     0.000 .00000E+00 0.000E+00 0.000E+00 0.000E+00 0.000E+00 0.000E+00
BIGSUB   7        0   10.14660E+04    17.900     0.000    89.013     9.612     9.844     0.000     0.000     0.040     0.050     0.000     0.000     0.000     0.000     0.000     0.000     0.010     0.000     0.000 .00000E+00 0.000E+00 0.000E+00 0.000E+00 0.000E+00 0.000E+00
BIGSUB   8        0   10.34940E+04    17.900     0.000    89.777     9.681    10.291     0.000     0.000     0.024     0.046     0.000     0.000     0.000     0.000     0.000     0.000     0.022     0.000     0.000 .00000E+00 0.000E+00 0.000E+00 0.000E+00 0.000E+00 0.000E+00
BIGSUB   9        0   10.47420E+04    20.400     0.000    81.612     8.614    18.263     0.000     0.000     0.000     0.009     0.000     0.000     0.000     0.000     0.000     0.000     0.009     0.000     0.000 .00000E+00 0.000E+00 0.000E+00 0.000E+00 0.000E+00 0.000E+00
BIGSUB  10        0   10.13380E+04    20.400     0.000    82.069     9.269    13.517     0.000     0.000     0.000     0.015     0.000     0.000     0.000     0.000     0.000     0.000     0.015     0.000     0.000 .00000E+00 0.000E+00 0.000E+00 0.000E+00 0.000E+00 0.000E+00
BIGSUB  11        0   10.24060E+04    19.432     0.000    65.404    11.650    13.980     0.000     0.000     0.000     0.014     0.000     0.000     0.000     0.000     0.000     0.000     0.014     0.000     0.000 .00000E+00 0.000E+00 0.000E+00 0.000E+00 0.000E+00 0.000E+00
BIGSUB  12        0   10.19770E+04    18.400     0.000    73.005     6.333    21.080     0.000     0.000     0.046     0.060     0.000     0.000     0.000     0.000     0.000     0.000     0.013     0.000     0.000 .00000E+00 0.000E+00 0.000E+00 0.000E+00 0.000E+00 0.000E+00
BIGSUB  13        0   10.16410E+04    19.432     0.000    65.694    13.414     8.796     0.000     0.000     0.000     0.011     0.000     0.000     0.000     0.000     0.000     0.000     0.011     0.000     0.000 .00000E+00 0.000E+00 0.000E+00 0.000E+00 0.000E+00 0.000E+00
BIGSUB  14        0   10.52740E+04    18.400     0.000    73.547     6.520    18.592     0.000     0.000     0.048     0.073     0.000     0.000     0.000     0.000     0.000     0.000     0.025     0.000     0.000 .00000E+00 0.000E+00 0.000E+00 0.000E+00 0.000E+00 0.000E+00
BIGSUB  15        0   10.42200E+03    19.432     0.000    65.964    12.598    11.113     0.000     0.000     0.000     0.010     0.000     0.000     0.000     0.000     0.000     0.000     0.010     0.000     0.000 .00000E+00 0.000E+00 0.000E+00 0.000E+00 0.000E+00 0.000E+00
BIGSUB  16        0   10.13850E+04    19.432     0.000    66.195    10.287    18.002     0.000     0.000     0.000     0.010     0.000     0.000     0.000     0.000     0.000     0.000     0.010     0.000     0.000 .00000E+00 0.000E+00 0.000E+00 0.000E+00 0.000E+00 0.000E+00
BIGSUB  17        0   10.17180E+04    18.400     0.000    74.101     6.795    13.922     0.000     0.000     0.126     0.138     0.000     0.000     0.000     0.000     0.000     0.000     0.012     0.000     0.000 .00000E+00 0.000E+00 0.000E+00 0.000E+00 0.000E+00 0.000E+00
BIGSUB  18        0   10.26090E+04    18.400     0.000    73.922     6.418    21.024     0.000     0.000     0.000     0.018     0.000     0.000     0.000     0.000     0.000     0.000     0.018     0.000     0.000 .00000E+00 0.000E+00 0.000E+00 0.000E+00 0.000E+00 0.000E+00
BIGSUB  19        0   10.25380E+04    18.400     0.000    74.462     6.593    18.327     0.000     0.000     0.053     0.064     0.000     0.000     0.000     0.000     0.000     0.000     0.011     0.000     0.000 .00000E+00 0.000E+00 0.000E+00 0.000E+00 0.000E+00 0.000E+00
BIGSUB  20        0   10.19820E+04    18.400     0.000    74.629     6.652    17.375     0.000     0.000     0.000     0.015     0.000     0.000     0.000     0.000     0.000     0.000     0.015     0.000     0.000 .00000E+00 0.000E+00 0.000E+00 0.000E+00 0.000E+00 0.000E+00
BIGSUB   1        0   11.12360E+04    13.000     0.000    54.578     7.832    17.923     0.000     0.000     0.005     0.025     0.000     0.000     0.000     0.000     0.000     0.000     0.020     0.000     0.000 .00000E+00 0.000E+00 0.000E+00 0.000E+00 0.000E+00 0.000E+00
BIGSUB   2        0   11.37400E+03    13.000     0.000    54.774     7.751    18.252     0.000     0.000     0.003     0.111     0.000     0.000     0.000     0.000     0.000     0.000     0.108     0.001     0.000 .00000E+00 0.000E+00 0.000E+00 0.000E+00 0.000E+00 0.000E+00
BIGSUB   3        0   11.14590E+04    13.000     0.000    54.573     7.637    19.473     0.000     0.000     0.003     0.036     0.000     0.000     0.000     0.000     0.000     0.000     0.034     0.000     0.000 .00000E+00 0.000E+00 0.000E+00 0.000E+00 0.000E+00 0.000E+00
BIGSUB   4        0   11.91800E+03    13.000     0.000    54.607     7.758    18.544     0.000     0.000     0.004     0.025     0.000     0.000     0.000     0.000     0.000     0.000     0.021     0.000     0.000 .00000E+00 0.000E+00 0.000E+00 0.000E+00 0.000E+00 0.000E+00
BIGSUB   5        0   11.37770E+04    13.000     0.000    54.927     7.664    19.452     0.000     0.000     0.000     0.020     0.000     0.000     0.000     0.000     0.000     0.000     0.020     0.000     0.000 .00000E+00 0.000E+00 0.000E+00 0.000E+00 0.000E+00 0.000E+00
BIGSUB   6        0   11.18250E+04    13.000     0.000    55.309     7.545    19.881     0.000     0.000     0.000     0.028     0.000     0.000     0.000     0.000     0.000     0.000     0.028     0.000     0.000 .00000E+00 0.000E+00 0.000E+00 0.000E+00 0.000E+00 0.000E+00
BIGSUB   7        0   11.14660E+04    13.000     0.000    55.344     8.930    13.910     0.000     0.000     0.014     0.024     0.000     0.000     0.000     0.000     0.000     0.000     0.009     0.000     0.000 .00000E+00 0.000E+00 0.000E+00 0.000E+00 0.000E+00 0.000E+00
BIGSUB   8        0   11.34940E+04    13.000     0.000    56.082     8.692    14.577     0.000     0.000     0.009     0.035     0.000     0.000     0.000     0.000     0.000     0.000     0.027     0.000     0.000 .00000E+00 0.000E+00 0.000E+00 0.000E+00 0.000E+00 0.000E+00
BIGSUB   9        0   11.47420E+04     0.800     0.000    51.550     7.767    11.297     0.000     0.000     0.000     0.013     0.000     0.000     0.000     0.000     0.000     0.000     0.013     0.000     0.000 .00000E+00 0.000E+00 0.000E+00 0.000E+00 0.000E+00 0.000E+00
BIGSUB  10        0   11.13380E+04     0.800     0.000    52.001     9.388     4.930     0.000     0.000     0.000     0.014     0.000     0.000     0.000     0.000     0.000     0.000     0.014     0.000     0.000 .00000E+00 0.000E+00 0.000E+00 0.000E+00 0.000E+00 0.000E+00
BIGSUB  11        0   11.24060E+04   110.416    10.535    36.286    29.826    94.452     0.000     0.000     0.000     0.025     0.000     0.000     0.000     0.000     0.000     0.000     0.025     0.000     0.000 .00000E+00 0.000E+00 0.000E+00 0.000E+00 0.000E+00 0.000E+00
BIGSUB  12        0   11.19770E+04     6.000     0.000    44.945    10.196    16.881     0.000     0.000     0.017     0.029     0.000     0.000     0.000     0.000     0.000     0.000     0.012     0.000     0.000 .00000E+00 0.000E+00 0.000E+00 0.000E+00 0.000E+00 0.000E+00
BIGSUB  13        0   11.16410E+04   110.416    10.535    36.535    29.755    89.396     0.000     0.000     0.000     0.014     0.000     0.000     0.000     0.000     0.000     0.000     0.014     0.000     0.000 .00000E+00 0.000E+00 0.000E+00 0.000E+00 0.000E+00 0.000E+00
BIGSUB  14        0   11.52740E+04     6.000     0.000    45.466    11.168    13.421     0.000     0.000     0.017     0.040     0.000     0.000     0.000     0.000     0.000     0.000     0.022     0.000     0.000 .00000E+00 0.000E+00 0.000E+00 0.000E+00 0.000E+00 0.000E+00
BIGSUB  15        0   11.42200E+03   110.416    10.535    36.767    29.946    91.515     0.000     0.000     0.000     0.015     0.000     0.000     0.000     0.000     0.000     0.000     0.015     0.000     0.000 .00000E+00 0.000E+00 0.000E+00 0.000E+00 0.000E+00 0.000E+00
BIGSUB  16        0   11.13850E+04   110.416    10.535    36.967    30.484    97.854     0.000     0.000     0.000     0.016     0.000     0.000     0.000     0.000     0.000     0.000     0.016     0.000     0.000 .00000E+00 0.000E+00 0.000E+00 0.000E+00 0.000E+00 0.000E+00
BIGSUB  17        0   11.17180E+04     6.000     0.000    46.001    13.061     6.860     0.000     0.000     0.046     0.057     0.000     0.000     0.000     0.000     0.000     0.000     0.011     0.000     0.000 .00000E+00 0.000E+00 0.000E+00 0.000E+00 0.000E+00 0.000E+00
BIGSUB  18        0   11.26090E+04     6.000     0.000    45.828    10.262    16.758     0.000     0.000     0.000     0.017     0.000     0.000     0.000     0.000     0.000     0.000     0.017     0.000     0.000 .00000E+00 0.000E+00 0.000E+00 0.000E+00 0.000E+00 0.000E+00
BIGSUB  19        0   11.25380E+04     6.000     0.000    46.349    11.258    13.062     0.000     0.000     0.019     0.037     0.000     0.000     0.000     0.000     0.000     0.000     0.018     0.000     0.000 .00000E+00 0.000E+00 0.000E+00 0.000E+00 0.000E+00 0.000E+00
BIGSUB  20        0   11.19820E+04     6.000     0.000    46.511    11.611    11.758     0.000     0.000     0.000     0.023     0.000     0.000     0.000     0.000     0.000     0.000     0.023     0.000     0.000 .00000E+00 0.000E+00 0.000E+00 0.000E+00 0.000E+00 0.000E+00
BIGSUB   1        0   12.12360E+04    39.000     0.000    27.257     7.718    38.158     0.000     0.000     0.002     0.031     0.000     0.000     0.000     0.000     0.000     0.000     0.029     0.000     0.000 .00000E+00 0.000E+00 0.000E+00 0.000E+00 0.000E+00 0.000E+00
BIGSUB   2        0   12.37400E+03    39.000     0.000    27.379     7.553    38.483     0.000     0.000     0.001     0.163     0.000     0.000     0.000     0.000     0.000     0.000     0.162     0.000     0.000 .00000E+00 0.000E+00 0.000E+00 0.000E+00 0.000E+00 0.000E+00
BIGSUB   3        0   12.14590E+04    39.000     0.000    27.255     7.297    40.106     0.000     0.000     0.001     0.043     0.000     0.000     0.000     0.000     0.000     0.000     0.042     0.000     0.000 .00000E+00 0.000E+00 0.000E+00 0.000E+00 0.000E+00 0.000E+00
BIGSUB   4        0   12.91800E+03    39.000     0.000    27.276     7.554    38.943     0.000     0.000     0.002     0.030     0.000     0.000     0.000     0.000     0.000     0.000     0.029     0.000     0.000 .00000E+00 0.000E+00 0.000E+00 0.000E+00 0.000E+00 0.000E+00
BIGSUB   5        0   12.37770E+04    39.000     0.000    27.473     7.327    40.081     0.000     0.000     0.000     0.026     0.000     0.000     0.000     0.000     0.000     0.000     0.026     0.000     0.000 .00000E+00 0.000E+00 0.000E+00 0.000E+00 0.000E+00 0.000E+00
BIGSUB   6        0   12.18250E+04    39.000     0.000    27.709     7.097    40.723     0.000     0.000     0.000     0.033     0.000     0.000     0.000     0.000     0.000     0.000     0.033     0.000     0.000 .00000E+00 0.000E+00 0.000E+00 0.000E+00 0.000E+00 0.000E+00
BIGSUB   7        0   12.14660E+04    39.000     0.000    27.731     9.016    32.884     0.000     0.000     0.006     0.015     0.000     0.000     0.000     0.000     0.000     0.000     0.009     0.000     0.000 .00000E+00 0.000E+00 0.000E+00 0.000E+00 0.000E+00 0.000E+00
BIGSUB   8        0   12.34940E+04    39.000     0.000    28.187     8.802    33.723     0.000     0.000     0.003     0.038     0.000     0.000     0.000     0.000     0.000     0.000     0.035     0.000     0.000 .00000E+00 0.000E+00 0.000E+00 0.000E+00 0.000E+00 0.000E+00
BIGSUB   9        0   12.47420E+04    15.300     0.100    28.129     4.449    11.747     0.000     0.000     0.000     0.008     0.000     0.000     0.000     0.000     0.000     0.000     0.008     0.000     0.000 .00000E+00 0.000E+00 0.000E+00 0.000E+00 0.000E+00 0.000E+00
BIGSUB  10        0   12.13380E+04    15.300     0.100    28.431     4.438     5.392     0.000     0.000     0.000     0.013     0.000     0.000     0.000     0.000     0.000     0.000     0.013     0.000     0.000 .00000E+00 0.000E+00 0.000E+00 0.000E+00 0.000E+00 0.000E+00
BIGSUB  11        0   12.24060E+04    22.312    16.670    21.931    16.638   100.115     0.000     0.000     0.000     0.029     0.000     0.000     0.000     0.000     0.000     0.000     0.029     0.000     0.000 .00000E+00 0.000E+00 0.000E+00 0.000E+00 0.000E+00 0.000E+00
BIGSUB  12        0   12.19770E+04    20.900     1.500    24.144     3.848    15.934     0.000     0.000     0.006     0.018     0.000     0.000     0.000     0.000     0.000     0.000     0.011     0.000     0.000 .00000E+00 0.000E+00 0.000E+00 0.000E+00 0.000E+00 0.000E+00
BIGSUB  13        0   12.16410E+04    22.312    16.667    22.113    16.464    95.238     0.000     0.000     0.000     0.015     0.000     0.000     0.000     0.000     0.000     0.000     0.015     0.000     0.000 .00000E+00 0.000E+00 0.000E+00 0.000E+00 0.000E+00 0.000E+00
BIGSUB  14        0   12.52740E+04    20.900     1.500    24.488     3.887    12.434     0.000     0.000     0.007     0.026     0.000     0.000     0.000     0.000     0.000     0.000     0.020     0.000     0.000 .00000E+00 0.000E+00 0.000E+00 0.000E+00 0.000E+00 0.000E+00
BIGSUB  15        0   12.42200E+03    22.312    16.664    22.284    16.640    97.181     0.000     0.000     0.000     0.017     0.000     0.000     0.000     0.000     0.000     0.000     0.017     0.000     0.000 .00000E+00 0.000E+00 0.000E+00 0.000E+00 0.000E+00 0.000E+00
BIGSUB  16        0   12.13850E+04    22.312    16.662    22.431    17.123   103.036     0.000     0.000     0.000     0.019     0.000     0.000     0.000     0.000     0.000     0.000     0.019     0.000     0.000 .00000E+00 0.000E+00 0.000E+00 0.000E+00 0.000E+00 0.000E+00
BIGSUB  17        0   12.17180E+04    20.900     1.500    24.842     3.788     5.972     0.000     0.000     0.018     0.028     0.000     0.000     0.000     0.000     0.000     0.000     0.010     0.000     0.000 .00000E+00 0.000E+00 0.000E+00 0.000E+00 0.000E+00 0.000E+00
BIGSUB  18        0   12.26090E+04    20.900     1.500    24.728     3.884    15.774     0.000     0.000     0.000     0.015     0.000     0.000     0.000     0.000     0.000     0.000     0.015     0.000     0.000 .00000E+00 0.000E+00 0.000E+00 0.000E+00 0.000E+00 0.000E+00
BIGSUB  19        0   12.25380E+04    20.900     1.500    25.073     3.922    12.040     0.000     0.000     0.007     0.019     0.000     0.000     0.000     0.000     0.000     0.000     0.012     0.000     0.000 .00000E+00 0.000E+00 0.000E+00 0.000E+00 0.000E+00 0.000E+00
BIGSUB  20        0   12.19820E+04    20.900     1.500    25.180     3.934    10.723     0.000     0.000     0.000     0.017     0.000     0.000     0.000     0.000     0.000     0.000     0.017     0.000     0.000 .00000E+00 0.000E+00 0.000E+00 0.000E+00 0.000E+00 0.000E+00
BIGSUB   1        0 1990.12360E+04   289.400    61.825  1311.747   270.539    38.158     7.943     0.000     7.514     8.030     0.000     0.000     0.000     0.000     0.000     0.000     0.516     0.007     0.190 .00000E+00 0.000E+00 0.000E+00 0.000E+00 0.000E+00 0.000E+00
BIGSUB   2        0 1990.37400E+03   289.400    61.823  1312.892   271.226    38.483     5.261     0.000     1.681     4.025     0.000     0.000     0.000     0.000     0.000     0.000     2.344     0.028     0.109 .00000E+00 0.000E+00 0.000E+00 0.000E+00 0.000E+00 0.000E+00
BIGSUB   3        0 1990.14590E+04   289.400    61.825  1311.723   274.478    40.106     4.093     0.000     3.432     4.164     0.000     0.000     0.000     0.000     0.000     0.000     0.732     0.009     0.168 .00000E+00 0.000E+00 0.000E+00 0.000E+00 0.000E+00 0.000E+00
BIGSUB   4        0 1990.91800E+03   289.400    61.825  1311.922   272.202    38.943     6.395     0.000     6.029     6.542     0.000     0.000     0.000     0.000     0.000     0.000     0.512     0.007     0.127 .00000E+00 0.000E+00 0.000E+00 0.000E+00 0.000E+00 0.000E+00
BIGSUB   5        0 1990.37770E+04   289.400    61.820  1313.779   274.770    40.081     4.021     0.000     0.000     0.477     0.000     0.000     0.000     0.000     0.000     0.000     0.477     0.006     0.000 .00000E+00 0.000E+00 0.000E+00 0.000E+00 0.000E+00 0.000E+00
BIGSUB   6        0 1990.18250E+04   289.400    61.815  1315.986   277.174    40.723     1.074     0.000     0.000     0.649     0.000     0.000     0.000     0.000     0.000     0.000     0.649     0.007     0.000 .00000E+00 0.000E+00 0.000E+00 0.000E+00 0.000E+00 0.000E+00
BIGSUB   7        0 1990.14660E+04   289.400    61.814  1316.192   248.838    32.884    30.686     0.000    26.059    26.203     0.000     0.000     0.000     0.000     0.000     0.000     0.143     0.004     1.340 .00000E+00 0.000E+00 0.000E+00 0.000E+00 0.000E+00 0.000E+00
BIGSUB   8        0 1990.34940E+04   289.400    61.804  1320.412   255.415    33.723    23.187     0.000    15.086    15.719     0.000     0.000     0.000     0.000     0.000     0.000     0.633     0.009     0.374 .00000E+00 0.000E+00 0.000E+00 0.000E+00 0.000E+00 0.000E+00
BIGSUB   9        0 1990.47420E+04   222.400    50.186  1239.538   225.797    11.747     0.000     0.000     0.000     0.277     0.000     0.000     0.000     0.000     0.000     0.000     0.277     0.004     0.000 .00000E+00 0.000E+00 0.000E+00 0.000E+00 0.000E+00 0.000E+00
BIGSUB  10        0 1990.13380E+04   222.400    50.176  1242.149   224.666     5.392     0.000     0.000     0.000     0.213     0.000     0.000     0.000     0.000     0.000     0.000     0.213     0.004     0.000 .00000E+00 0.000E+00 0.000E+00 0.000E+00 0.000E+00 0.000E+00
BIGSUB  11        0 1990.24060E+04   329.184    90.047  1078.785   262.668   100.115     0.000     0.000     0.031     0.279     0.000     0.000     0.000     0.000     0.000     0.000     0.248     0.003     0.000 .00000E+00 0.000E+00 0.000E+00 0.000E+00 0.000E+00 0.000E+00
BIGSUB  12        0 1990.19770E+04   292.300   105.788  1132.693   293.721    15.934    24.049     0.000    12.492    12.694     0.000     0.000     0.000     0.000     0.000     0.000     0.201     0.003     0.961 .00000E+00 0.000E+00 0.000E+00 0.000E+00 0.000E+00 0.000E+00
BIGSUB  13        0 1990.16410E+04   329.184    90.042  1080.497   261.566    95.238     0.000     0.000     0.009     0.183     0.000     0.000     0.000     0.000     0.000     0.000     0.173     0.003     0.000 .00000E+00 0.000E+00 0.000E+00 0.000E+00 0.000E+00 0.000E+00
BIGSUB  14        0 1990.52740E+04   292.300   105.763  1135.523   269.265    12.434    48.007     0.000    23.380    23.815     0.000     0.000     0.000     0.000     0.000     0.000     0.434     0.008     1.393 .00000E+00 0.000E+00 0.000E+00 0.000E+00 0.000E+00 0.000E+00
BIGSUB  15        0 1990.42200E+03   329.184    90.037  1082.085   262.135    97.181     0.000     0.000     0.034     0.192     0.000     0.000     0.000     0.000     0.000     0.000     0.157     0.002     0.000 .00000E+00 0.000E+00 0.000E+00 0.000E+00 0.000E+00 0.000E+00
BIGSUB  16        0 1990.13850E+04   329.184    90.032  1083.443   263.952   103.036     0.000     0.000     0.025     0.190     0.000     0.000     0.000     0.000     0.000     0.000     0.165     0.003     0.000 .00000E+00 0.000E+00 0.000E+00 0.000E+00 0.000E+00 0.000E+00
BIGSUB  17        0 1990.17180E+04   292.300   105.737  1138.596   221.351     5.972    94.968     0.000    56.029    56.192     0.000     0.000     0.000     0.000     0.000     0.000     0.163     0.003     2.850 .00000E+00 0.000E+00 0.000E+00 0.000E+00 0.000E+00 0.000E+00
BIGSUB  18        0 1990.26090E+04   292.300   105.745  1137.606   292.459    15.774    24.722     0.000     0.000     0.284     0.000     0.000     0.000     0.000     0.000     0.000     0.284     0.005     0.000 .00000E+00 0.000E+00 0.000E+00 0.000E+00 0.000E+00 0.000E+00
BIGSUB  19        0 1990.25380E+04   292.300   105.720  1140.582   267.175    12.040    49.542     0.000    23.215    23.808     0.000     0.000     0.000     0.000     0.000     0.000     0.592     0.009     1.283 .00000E+00 0.000E+00 0.000E+00 0.000E+00 0.000E+00 0.000E+00
BIGSUB  20        0 1990.19820E+04   292.300   105.712  1141.498   257.909    10.723    58.638     0.000     0.000     0.736     0.000     0.000     0.000     0.000     0.000     0.000     0.736     0.014     0.000 .00000E+00 0.000E+00 0.000E+00 0.000E+00 0.000E+00 0.000E+00
BIGSUB   1        0    1.12360E+04    19.100    26.211    17.848     8.517    59.711     0.000     0.000     0.001     0.031     0.000     0.000     0.000     0.000     0.000     0.000     0.031     0.000     0.000 .00000E+00 0.000E+00 0.000E+00 0.000E+00 0.000E+00 0.000E+00
BIGSUB   2        0    1.37400E+03    19.100    26.207    17.919     8.467    59.972     0.000     0.000     0.000     0.149     0.000     0.000     0.000     0.000     0.000     0.000     0.149     0.001     0.000 .00000E+00 0.000E+00 0.000E+00 0.000E+00 0.000E+00 0.000E+00
BIGSUB   3        0    1.14590E+04    19.100    26.211    17.846     8.154    62.019     0.000     0.000     0.000     0.044     0.000     0.000     0.000     0.000     0.000     0.000     0.043     0.000     0.000 .00000E+00 0.000E+00 0.000E+00 0.000E+00 0.000E+00 0.000E+00
BIGSUB   4        0    1.91800E+03    19.100    26.210    17.859     8.376    60.638     0.000     0.000     0.001     0.031     0.000     0.000     0.000     0.000     0.000     0.000     0.031     0.000     0.000 .00000E+00 0.000E+00 0.000E+00 0.000E+00 0.000E+00 0.000E+00
BIGSUB   5        0    1.37770E+04    19.100    26.204    17.975     8.308    61.852     0.000     0.000     0.000     0.027     0.000     0.000     0.000     0.000     0.000     0.000     0.027     0.000     0.000 .00000E+00 0.000E+00 0.000E+00 0.000E+00 0.000E+00 0.000E+00
BIGSUB   6        0    1.18250E+04    19.100    26.198    18.114     8.169    62.637     0.000     0.000     0.000     0.033     0.000     0.000     0.000     0.000     0.000     0.000     0.033     0.000     0.000 .00000E+00 0.000E+00 0.000E+00 0.000E+00 0.000E+00 0.000E+00
BIGSUB   7        0    1.14660E+04    19.100    26.197    18.127     9.145    53.830     0.000     0.000     0.002     0.011     0.000     0.000     0.000     0.000     0.000     0.000     0.009     0.000     0.000 .00000E+00 0.000E+00 0.000E+00 0.000E+00 0.000E+00 0.000E+00
BIGSUB   8        0    1.34940E+04    19.100    26.184    18.396     9.198    54.584     0.000     0.000     0.001     0.038     0.000     0.000     0.000     0.000     0.000     0.000     0.037     0.000     0.000 .00000E+00 0.000E+00 0.000E+00 0.000E+00 0.000E+00 0.000E+00
BIGSUB   9        0    1.47420E+04    34.700    18.450    19.588     4.215    27.026     0.000     0.000     0.000     0.006     0.000     0.000     0.000     0.000     0.000     0.000     0.006     0.000     0.000 .00000E+00 0.000E+00 0.000E+00 0.000E+00 0.000E+00 0.000E+00
BIGSUB  10        0    1.13380E+04    34.700    18.450    19.780     4.363    20.531     0.000     0.000     0.000     0.011     0.000     0.000     0.000     0.000     0.000     0.000     0.011     0.000     0.000 .00000E+00 0.000E+00 0.000E+00 0.000E+00 0.000E+00 0.000E+00
BIGSUB  11        0    1.24060E+04    29.257     2.915    19.324     7.806    95.224     0.000     0.000     0.000     0.025     0.000     0.000     0.000     0.000     0.000     0.000     0.025     0.000     0.000 .00000E+00 0.000E+00 0.000E+00 0.000E+00 0.000E+00 0.000E+00
BIGSUB  12        0    1.19770E+04    38.200     3.825    14.975     3.552    16.206     0.000     0.000     0.002     0.012     0.000     0.000     0.000     0.000     0.000     0.000     0.010     0.000     0.000 .00000E+00 0.000E+00 0.000E+00 0.000E+00 0.000E+00 0.000E+00
BIGSUB  13        0    1.16410E+04    29.257     2.915    19.471     7.520    90.633     0.000     0.000     0.000     0.014     0.000     0.000     0.000     0.000     0.000     0.000     0.014     0.000     0.000 .00000E+00 0.000E+00 0.000E+00 0.000E+00 0.000E+00 0.000E+00
BIGSUB  14        0    1.52740E+04    38.200     3.825    15.072     3.422    12.836     0.000     0.000     0.002     0.019     0.000     0.000     0.000     0.000     0.000     0.000     0.017     0.000     0.000 .00000E+00 0.000E+00 0.000E+00 0.000E+00 0.000E+00 0.000E+00
BIGSUB  15        0    1.42200E+03    29.257     2.915    19.608     7.687    92.408     0.000     0.000     0.000     0.015     0.000     0.000     0.000     0.000     0.000     0.000     0.015     0.000     0.000 .00000E+00 0.000E+00 0.000E+00 0.000E+00 0.000E+00 0.000E+00
BIGSUB  16        0    1.13850E+04    29.257     2.915    19.726     8.158    97.793     0.000     0.000     0.000     0.017     0.000     0.000     0.000     0.000     0.000     0.000     0.017     0.000     0.000 .00000E+00 0.000E+00 0.000E+00 0.000E+00 0.000E+00 0.000E+00
BIGSUB  17        0    1.17180E+04    38.200     3.825    15.271     3.553     6.243     0.000     0.000     0.007     0.016     0.000     0.000     0.000     0.000     0.000     0.000     0.010     0.000     0.000 .00000E+00 0.000E+00 0.000E+00 0.000E+00 0.000E+00 0.000E+00
BIGSUB  18        0    1.26090E+04    38.200     3.825    15.207     3.348    16.251     0.000     0.000     0.000     0.013     0.000     0.000     0.000     0.000     0.000     0.000     0.013     0.000     0.000 .00000E+00 0.000E+00 0.000E+00 0.000E+00 0.000E+00 0.000E+00
BIGSUB  19        0    1.25380E+04    38.200     3.825    15.401     3.471    12.394     0.000     0.000     0.003     0.011     0.000     0.000     0.000     0.000     0.000     0.000     0.008     0.000     0.000 .00000E+00 0.000E+00 0.000E+00 0.000E+00 0.000E+00 0.000E+00
BIGSUB  20        0    1.19820E+04    38.200     3.825    15.461     3.416    11.132     0.000     0.000     0.000     0.012     0.000     0.000     0.000     0.000     0.000     0.000     0.012     0.000     0.000 .00000E+00 0.000E+00 0.000E+00 0.000E+00 0.000E+00 0.000E+00
BIGSUB   1        0    2.12360E+04    41.900    22.300    31.255    19.007    82.539     0.000     0.000     0.000     0.028     0.000     0.000     0.000     0.000     0.000     0.000     0.028     0.000     0.000 .00000E+00 0.000E+00 0.000E+00 0.000E+00 0.000E+00 0.000E+00
BIGSUB   2        0    2.37400E+03    41.900    22.300    31.343    19.192    82.370     0.000     0.000     0.000     0.127     0.000     0.000     0.000     0.000     0.000     0.000     0.127     0.002     0.000 .00000E+00 0.000E+00 0.000E+00 0.000E+00 0.000E+00 0.000E+00
BIGSUB   3        0    2.14590E+04    41.900    22.300    31.253    18.661    85.171     0.000     0.000     0.000     0.038     0.000     0.000     0.000     0.000     0.000     0.000     0.038     0.000     0.000 .00000E+00 0.000E+00 0.000E+00 0.000E+00 0.000E+00 0.000E+00
BIGSUB   4        0    2.91800E+03    41.900    22.300    31.268    18.873    83.600     0.000     0.000     0.000     0.028     0.000     0.000     0.000     0.000     0.000     0.000     0.028     0.000     0.000 .00000E+00 0.000E+00 0.000E+00 0.000E+00 0.000E+00 0.000E+00
BIGSUB   5        0    2.37770E+04    41.900    22.300    31.412    19.133    84.564     0.000     0.000     0.000     0.023     0.000     0.000     0.000     0.000     0.000     0.000     0.023     0.000     0.000 .00000E+00 0.000E+00 0.000E+00 0.000E+00 0.000E+00 0.000E+00
BIGSUB   6        0    2.18250E+04    41.900    22.300    31.584    19.002    85.470     0.000     0.000     0.000     0.027     0.000     0.000     0.000     0.000     0.000     0.000     0.027     0.000     0.000 .00000E+00 0.000E+00 0.000E+00 0.000E+00 0.000E+00 0.000E+00
BIGSUB   7        0    2.14660E+04    41.900    22.300    31.601    18.384    77.334     0.000     0.000     0.001     0.009     0.000     0.000     0.000     0.000     0.000     0.000     0.008     0.000     0.000 .00000E+00 0.000E+00 0.000E+00 0.000E+00 0.000E+00 0.000E+00
[...]
BIGSUB   9        0   11.47420E+04    24.100     5.400    41.873    15.484    26.691     0.000     0.000     0.000     0.022     0.000     0.000     0.000     0.000     0.000     0.000     0.022     0.000     0.000 .00000E+00 0.000E+00 0.000E+00 0.000E+00 0.000E+00 0.000E+00
BIGSUB  10        0   11.13380E+04    24.100     5.400    42.235    17.442    23.530     0.000     0.000     0.000     0.014     0.000     0.000     0.000     0.000     0.000     0.000     0.014     0.000     0.000 .00000E+00 0.000E+00 0.000E+00 0.000E+00 0.000E+00 0.000E+00
BIGSUB  11        0   11.24060E+04    39.900     0.700    37.806    13.154    39.464     0.000     0.000     0.000     0.012     0.000     0.000     0.000     0.000     0.000     0.000     0.012     0.000     0.000 .00000E+00 0.000E+00 0.000E+00 0.000E+00 0.000E+00 0.000E+00
BIGSUB  12        0   11.19770E+04    15.200     2.000    38.925     9.401    22.976     0.000     0.000     0.000     0.007     0.000     0.000     0.000     0.000     0.000     0.000     0.007     0.000     0.000 .00000E+00 0.000E+00 0.000E+00 0.000E+00 0.000E+00 0.000E+00
BIGSUB  13        0   11.16410E+04    39.900     0.700    38.057    15.554    33.899     0.000     0.000     0.000     0.008     0.000     0.000     0.000     0.000     0.000     0.000     0.008     0.000     0.000 .00000E+00 0.000E+00 0.000E+00 0.000E+00 0.000E+00 0.000E+00
BIGSUB  14        0   11.52740E+04    15.200     2.000    39.372     9.636    20.191     0.000     0.000     0.000     0.011     0.000     0.000     0.000     0.000     0.000     0.000     0.011     0.000     0.000 .00000E+00 0.000E+00 0.000E+00 0.000E+00 0.000E+00 0.000E+00
BIGSUB  15        0   11.42200E+03    39.900     0.700    38.292    14.651    36.155     0.000     0.000     0.000     0.007     0.000     0.000     0.000     0.000     0.000     0.000     0.007     0.000     0.000 .00000E+00 0.000E+00 0.000E+00 0.000E+00 0.000E+00 0.000E+00
BIGSUB  16        0   11.13850E+04    39.900     0.700    38.493    11.500    43.501     0.000     0.000     0.000     0.008     0.000     0.000     0.000     0.000     0.000     0.000     0.008     0.000     0.000 .00000E+00 0.000E+00 0.000E+00 0.000E+00 0.000E+00 0.000E+00
BIGSUB  17        0   11.17180E+04    15.200     2.000    39.831     9.900    14.668     0.000     0.000     0.002     0.008     0.000     0.000     0.000     0.000     0.000     0.000     0.006     0.000     0.000 .00000E+00 0.000E+00 0.000E+00 0.000E+00 0.000E+00 0.000E+00
BIGSUB  18        0   11.26090E+04    15.200     2.000    39.683     9.597    22.689     0.000     0.000     0.000     0.009     0.000     0.000     0.000     0.000     0.000     0.000     0.009     0.000     0.000 .00000E+00 0.000E+00 0.000E+00 0.000E+00 0.000E+00 0.000E+00
BIGSUB  19        0   11.25380E+04    15.200     2.000    40.131     9.733    19.828     0.000     0.000     0.000     0.014     0.000     0.000     0.000     0.000     0.000     0.000     0.014     0.000     0.000 .00000E+00 0.000E+00 0.000E+00 0.000E+00 0.000E+00 0.000E+00
BIGSUB  20        0   11.19820E+04    15.200     2.000    40.270     9.779    18.822     0.000     0.000     0.000     0.017     0.000     0.000     0.000     0.000     0.000     0.000     0.017     0.000     0.000 .00000E+00 0.000E+00 0.000E+00 0.000E+00 0.000E+00 0.000E+00
BIGSUB   1        0   12.12360E+04    45.100     0.000    26.069    17.235    52.952     0.000     0.000     0.000     0.058     0.000     0.000     0.000     0.000     0.000     0.000     0.058     0.000     0.000 .00000E+00 0.000E+00 0.000E+00 0.000E+00 0.000E+00 0.000E+00
BIGSUB   2        0   12.37400E+03    45.100     0.000    26.186    17.219    52.581     0.000     0.000     0.000     0.411     0.000     0.000     0.000     0.000     0.000     0.000     0.411     0.001     0.000 .00000E+00 0.000E+00 0.000E+00 0.000E+00 0.000E+00 0.000E+00
BIGSUB   3        0   12.14590E+04    45.100     0.000    26.066    17.170    54.014     0.000     0.000     0.000     0.066     0.000     0.000     0.000     0.000     0.000     0.000     0.066     0.000     0.000 .00000E+00 0.000E+00 0.000E+00 0.000E+00 0.000E+00 0.000E+00
BIGSUB   4        0   12.91800E+03    45.100     0.000    26.087    17.222    53.386     0.000     0.000     0.000     0.056     0.000     0.000     0.000     0.000     0.000     0.000     0.056     0.000     0.000 .00000E+00 0.000E+00 0.000E+00 0.000E+00 0.000E+00 0.000E+00
BIGSUB   5        0   12.37770E+04    45.100     0.000    26.277    17.234    53.794     0.000     0.000     0.000     0.043     0.000     0.000     0.000     0.000     0.000     0.000     0.043     0.000     0.000 .00000E+00 0.000E+00 0.000E+00 0.000E+00 0.000E+00 0.000E+00
BIGSUB   6        0   12.18250E+04    45.100     0.000    26.505    17.384    53.704     0.000     0.000     0.000     0.038     0.000     0.000     0.000     0.000     0.000     0.000     0.038     0.000     0.000 .00000E+00 0.000E+00 0.000E+00 0.000E+00 0.000E+00 0.000E+00
BIGSUB   7        0   12.14660E+04    45.100     0.000    26.526    17.785    49.825     0.000     0.000     0.000     0.006     0.000     0.000     0.000     0.000     0.000     0.000     0.006     0.000     0.000 .00000E+00 0.000E+00 0.000E+00 0.000E+00 0.000E+00 0.000E+00
BIGSUB   8        0   12.34940E+04    45.100     0.000    26.967    18.142    49.491     0.000     0.000     0.000     0.056     0.000     0.000     0.000     0.000     0.000     0.000     0.056     0.000     0.000 .00000E+00 0.000E+00 0.000E+00 0.000E+00 0.000E+00 0.000E+00
BIGSUB   9        0   12.47420E+04    12.900     0.000    27.949    10.963    28.612     0.000     0.000     0.000     0.024     0.000     0.000     0.000     0.000     0.000     0.000     0.023     0.000     0.000 .00000E+00 0.000E+00 0.000E+00 0.000E+00 0.000E+00 0.000E+00
BIGSUB  10        0   12.13380E+04    12.900     0.000    28.252    13.364    23.054     0.000     0.000     0.000     0.015     0.000     0.000     0.000     0.000     0.000     0.000     0.015     0.000     0.000 .00000E+00 0.000E+00 0.000E+00 0.000E+00 0.000E+00 0.000E+00
BIGSUB  11        0   12.24060E+04    40.500     0.354    25.023    17.562    62.360     0.000     0.000     0.000     0.018     0.000     0.000     0.000     0.000     0.000     0.000     0.018     0.000     0.000 .00000E+00 0.000E+00 0.000E+00 0.000E+00 0.000E+00 0.000E+00
BIGSUB  12        0   12.19770E+04    17.700     3.476    24.035     8.712    31.956     0.000     0.000     0.000     0.008     0.000     0.000     0.000     0.000     0.000     0.000     0.008     0.000     0.000 .00000E+00 0.000E+00 0.000E+00 0.000E+00 0.000E+00 0.000E+00
BIGSUB  13        0   12.16410E+04    40.500     0.354    25.231    17.003    57.372     0.000     0.000     0.000     0.010     0.000     0.000     0.000     0.000     0.000     0.000     0.010     0.000     0.000 .00000E+00 0.000E+00 0.000E+00 0.000E+00 0.000E+00 0.000E+00
BIGSUB  14        0   12.52740E+04    17.700     3.474    24.381     9.487    28.390     0.000     0.000     0.000     0.013     0.000     0.000     0.000     0.000     0.000     0.000     0.013     0.000     0.000 .00000E+00 0.000E+00 0.000E+00 0.000E+00 0.000E+00 0.000E+00
BIGSUB  15        0   12.42200E+03    40.500     0.354    25.426    17.343    59.288     0.000     0.000     0.000     0.011     0.000     0.000     0.000     0.000     0.000     0.000     0.011     0.000     0.000 .00000E+00 0.000E+00 0.000E+00 0.000E+00 0.000E+00 0.000E+00
BIGSUB  16        0   12.13850E+04    40.500     0.354    25.594    18.345    65.628     0.000     0.000     0.000     0.012     0.000     0.000     0.000     0.000     0.000     0.000     0.012     0.000     0.000 .00000E+00 0.000E+00 0.000E+00 0.000E+00 0.000E+00 0.000E+00
BIGSUB  17        0   12.17180E+04    17.700     3.472    24.736    11.486    20.878     0.000     0.000     0.001     0.007     0.000     0.000     0.000     0.000     0.000     0.000     0.006     0.000     0.000 .00000E+00 0.000E+00 0.000E+00 0.000E+00 0.000E+00 0.000E+00
BIGSUB  18        0   12.26090E+04    17.700     3.473    24.621     8.888    31.489     0.000     0.000     0.000     0.010     0.000     0.000     0.000     0.000     0.000     0.000     0.010     0.000     0.000 .00000E+00 0.000E+00 0.000E+00 0.000E+00 0.000E+00 0.000E+00
BIGSUB  19        0   12.25380E+04    17.700     3.471    24.969     9.650    27.857     0.000     0.000     0.000     0.022     0.000     0.000     0.000     0.000     0.000     0.000     0.022     0.000     0.000 .00000E+00 0.000E+00 0.000E+00 0.000E+00 0.000E+00 0.000E+00
BIGSUB  20        0   12.19820E+04    17.700     3.470    25.077     9.917    26.580     0.000     0.000     0.000     0.026     0.000     0.000     0.000     0.000     0.000     0.000     0.026     0.000     0.000 .00000E+00 0.000E+00 0.000E+00 0.000E+00 0.000E+00 0.000E+00
BIGSUB   1        0 2001.12360E+04   175.100     7.600  1387.187   185.284    52.952     0.000     0.000     0.000     0.316     0.000     0.000     0.000     0.000     0.000     0.000     0.316     0.002     0.000 .00000E+00 0.000E+00 0.000E+00 0.000E+00 0.000E+00 0.000E+00
BIGSUB   2        0 2001.37400E+03   175.100     7.600  1388.431   184.894    52.581     0.000     0.000     0.000     1.449     0.000     0.000     0.000     0.000     0.000     0.000     1.448     0.009     0.000 .00000E+00 0.000E+00 0.000E+00 0.000E+00 0.000E+00 0.000E+00
BIGSUB   3        0 2001.14590E+04   175.100     7.600  1387.160   186.824    54.014     0.000     0.000     0.000     0.457     0.000     0.000     0.000     0.000     0.000     0.000     0.456     0.004     0.000 .00000E+00 0.000E+00 0.000E+00 0.000E+00 0.000E+00 0.000E+00
BIGSUB   4        0 2001.91800E+03   175.100     7.600  1387.376   185.946    53.386     0.000     0.000     0.000     0.315     0.000     0.000     0.000     0.000     0.000     0.000     0.315     0.002     0.000 .00000E+00 0.000E+00 0.000E+00 0.000E+00 0.000E+00 0.000E+00
BIGSUB   5        0 2001.37770E+04   175.100     7.600  1389.395   187.165    53.794     0.000     0.000     0.000     0.289     0.000     0.000     0.000     0.000     0.000     0.000     0.289     0.002     0.000 .00000E+00 0.000E+00 0.000E+00 0.000E+00 0.000E+00 0.000E+00
BIGSUB   6        0 2001.18250E+04   175.100     7.600  1391.795   188.057    53.704     0.000     0.000     0.000     0.378     0.000     0.000     0.000     0.000     0.000     0.000     0.377     0.002     0.000 .00000E+00 0.000E+00 0.000E+00 0.000E+00 0.000E+00 0.000E+00
BIGSUB   7        0 2001.14660E+04   175.100     7.600  1392.018   181.395    49.825     0.000     0.000     0.000     0.072     0.000     0.000     0.000     0.000     0.000     0.000     0.072     0.001     0.000 .00000E+00 0.000E+00 0.000E+00 0.000E+00 0.000E+00 0.000E+00
BIGSUB   8        0 2001.34940E+04   175.100     7.600  1396.615   182.491    49.491     0.000     0.000     0.000     0.349     0.000     0.000     0.000     0.000     0.000     0.000     0.349     0.003     0.000 .00000E+00 0.000E+00 0.000E+00 0.000E+00 0.000E+00 0.000E+00
BIGSUB   9        0 2001.47420E+04   200.400    13.300  1264.808   224.635    28.612     0.000     0.000     0.000     0.243     0.000     0.000     0.000     0.000     0.000     0.000     0.242     0.002     0.000 .00000E+00 0.000E+00 0.000E+00 0.000E+00 0.000E+00 0.000E+00
BIGSUB  10        0 2001.13380E+04   200.400    13.300  1267.567   219.859    23.054     0.000     0.000     0.000     0.189     0.000     0.000     0.000     0.000     0.000     0.000     0.189     0.002     0.000 .00000E+00 0.000E+00 0.000E+00 0.000E+00 0.000E+00 0.000E+00
BIGSUB  11        0 2001.24060E+04   213.100    33.037  1159.323   222.287    62.360     0.000     0.000     0.007     0.184     0.000     0.000     0.000     0.000     0.000     0.000     0.178     0.002     0.000 .00000E+00 0.000E+00 0.000E+00 0.000E+00 0.000E+00 0.000E+00
BIGSUB  12        0 2001.19770E+04   180.000    62.616  1163.035   240.173    31.956     0.000     0.000     0.000     0.115     0.000     0.000     0.000     0.000     0.000     0.000     0.115     0.001     0.000 .00000E+00 0.000E+00 0.000E+00 0.000E+00 0.000E+00 0.000E+00
BIGSUB  13        0 2001.16410E+04   213.100    33.035  1161.186   221.141    57.372     0.000     0.000     0.003     0.130     0.000     0.000     0.000     0.000     0.000     0.000     0.127     0.001     0.000 .00000E+00 0.000E+00 0.000E+00 0.000E+00 0.000E+00 0.000E+00
BIGSUB  14        0 2001.52740E+04   180.000    62.585  1166.188   238.935    28.390     0.000     0.000     0.002     0.217     0.000     0.000     0.000     0.000     0.000     0.000     0.215     0.002     0.000 .00000E+00 0.000E+00 0.000E+00 0.000E+00 0.000E+00 0.000E+00
BIGSUB  15        0 2001.42200E+03   213.100    33.033  1162.915   221.840    59.288     0.000     0.000     0.009     0.123     0.000     0.000     0.000     0.000     0.000     0.000     0.113     0.001     0.000 .00000E+00 0.000E+00 0.000E+00 0.000E+00 0.000E+00 0.000E+00
BIGSUB  16        0 2001.13850E+04   213.100    33.032  1164.393   223.205    65.628     0.000     0.000     0.003     0.117     0.000     0.000     0.000     0.000     0.000     0.000     0.113     0.001     0.000 .00000E+00 0.000E+00 0.000E+00 0.000E+00 0.000E+00 0.000E+00
BIGSUB  17        0 2001.17180E+04   180.000    62.553  1169.387   229.089    20.878     8.862     0.000     7.505     7.599     0.000     0.000     0.000     0.000     0.000     0.000     0.095     0.001     0.046 .00000E+00 0.000E+00 0.000E+00 0.000E+00 0.000E+00 0.000E+00
BIGSUB  18        0 2001.26090E+04   180.000    62.563  1168.357   239.748    31.489     0.000     0.000     0.000     0.152     0.000     0.000     0.000     0.000     0.000     0.000     0.152     0.002     0.000 .00000E+00 0.000E+00 0.000E+00 0.000E+00 0.000E+00 0.000E+00
BIGSUB  19        0 2001.25380E+04   180.000    62.532  1171.455   238.617    27.857     0.000     0.000     0.002     0.297     0.000     0.000     0.000     0.000     0.000     0.000     0.295     0.002     0.000 .00000E+00 0.000E+00 0.000E+00 0.000E+00 0.000E+00 0.000E+00
BIGSUB  20        0 2001.19820E+04   180.000    62.522  1172.410   238.245    26.580     0.000     0.000     0.000     0.348     0.000     0.000     0.000     0.000     0.000     0.000     0.348     0.003     0.000 .00000E+00 0.000E+00 0.000E+00 0.000E+00 0.000E+00 0.000E+00
BIGSUB   1        0 12.0.12360E+04   273.842    46.598  1301.699   262.206    52.952     9.949     0.000     9.179     9.683     0.000     0.000     0.000     0.000     0.000     0.000     0.504     0.006     0.351 .00000E+00 0.000E+00 0.000E+00 0.000E+00 0.000E+00 0.000E+00
BIGSUB   2        0 12.0.37400E+03   273.842    46.595  1302.846   262.548    52.581     7.832     0.000     1.060     3.381     0.000     0.000     0.000     0.000     0.000     0.000     2.321     0.025     0.085 .00000E+00 0.000E+00 0.000E+00 0.000E+00 0.000E+00 0.000E+00
BIGSUB   3        0 12.0.14590E+04   273.842    46.598  1301.675   266.239    54.014     5.813     0.000     2.930     3.636     0.000     0.000     0.000     0.000     0.000     0.000     0.707     0.011     0.244 .00000E+00 0.000E+00 0.000E+00 0.000E+00 0.000E+00 0.000E+00
BIGSUB   4        0 12.0.91800E+03   273.842    46.597  1301.874   263.895    53.386     8.303     0.000     6.872     7.372     0.000     0.000     0.000     0.000     0.000     0.000     0.499     0.007     0.384 .00000E+00 0.000E+00 0.000E+00 0.000E+00 0.000E+00 0.000E+00
BIGSUB   5        0 12.0.37770E+04   273.842    46.592  1303.735   267.009    53.794     5.310     0.000     0.409     0.861     0.000     0.000     0.000     0.000     0.000     0.000     0.452     0.005     0.000 .00000E+00 0.000E+00 0.000E+00 0.000E+00 0.000E+00 0.000E+00
BIGSUB   6        0 12.0.18250E+04   273.842    46.586  1305.946   269.658    53.704     2.548     0.000     0.447     1.042     0.000     0.000     0.000     0.000     0.000     0.000     0.595     0.006     0.043 .00000E+00 0.000E+00 0.000E+00 0.000E+00 0.000E+00 0.000E+00
BIGSUB   7        0 12.0.14660E+04   273.842    46.586  1306.152   249.247    49.825    23.169     0.000    18.016    18.139     0.000     0.000     0.000     0.000     0.000     0.000     0.123     0.002     0.889 .00000E+00 0.000E+00 0.000E+00 0.000E+00 0.000E+00 0.000E+00
BIGSUB   8        0 12.0.34940E+04   273.842    46.574  1310.320   252.684    49.491    19.329     0.000    12.827    13.413     0.000     0.000     0.000     0.000     0.000     0.000     0.586     0.007     0.451 .00000E+00 0.000E+00 0.000E+00 0.000E+00 0.000E+00 0.000E+00
BIGSUB   9        0 12.0.47420E+04   283.017    46.042  1206.171   275.740    28.612     6.686     0.000     1.977     2.333     0.000     0.000     0.000     0.000     0.000     0.000     0.357     0.006     0.373 .00000E+00 0.000E+00 0.000E+00 0.000E+00 0.000E+00 0.000E+00
BIGSUB  10        0 12.0.13380E+04   283.017    46.034  1208.742   260.541    23.054    21.772     0.000     5.269     5.574     0.000     0.000     0.000     0.000     0.000     0.000     0.305     0.006     0.512 .00000E+00 0.000E+00 0.000E+00 0.000E+00 0.000E+00 0.000E+00
BIGSUB  11        0 12.0.24060E+04   400.261    99.356  1092.950   326.691    62.360    69.047     1.593    31.845    33.826     0.069     0.155     0.018     0.006     0.000     0.043     0.388     0.004     0.972 .00000E+00 0.000E+00 0.000E+00 0.000E+00 0.000E+00 0.000E+00
BIGSUB  12        0 12.0.19770E+04   347.875    81.081  1113.007   317.718    31.956    32.236     0.000    10.649    10.877     0.000     0.000     0.000     0.000     0.000     0.000     0.228     0.003     0.577 .00000E+00 0.000E+00 0.000E+00 0.000E+00 0.000E+00 0.000E+00
BIGSUB  13        0 12.0.16410E+04   400.261    99.347  1094.717   293.045    57.372   103.414     0.999     4.620     5.877     0.035     0.084     0.010     0.002     0.000     0.023     0.259     0.003     0.123 .00000E+00 0.000E+00 0.000E+00 0.000E+00 0.000E+00 0.000E+00
BIGSUB  14        0 12.0.52740E+04   347.875    81.045  1115.920   299.182    28.390    50.420     0.060    20.825    21.359     0.002     0.008     0.001     0.000     0.000     0.002     0.474     0.006     0.688 .00000E+00 0.000E+00 0.000E+00 0.000E+00 0.000E+00 0.000E+00
BIGSUB  15        0 12.0.42200E+03   400.261    99.339  1096.356   306.545    59.288    89.724     1.251    48.271    49.765     0.050     0.092     0.011     0.004     0.000     0.025     0.243     0.002     1.258 .00000E+00 0.000E+00 0.000E+00 0.000E+00 0.000E+00 0.000E+00
BIGSUB  16        0 12.0.13850E+04   400.261    99.332  1097.758   349.452    65.628    47.069     1.051    35.239    36.549     0.029     0.071     0.008     0.004     0.000     0.020     0.259     0.003     1.495 .00000E+00 0.000E+00 0.000E+00 0.000E+00 0.000E+00 0.000E+00
BIGSUB  17        0 12.0.17180E+04   347.875    81.028  1118.941   261.791    20.878    87.728     0.373    51.969    52.514     0.006     0.023     0.003     0.001     0.000     0.006     0.172     0.002     1.537 .00000E+00 0.000E+00 0.000E+00 0.000E+00 0.000E+00 0.000E+00
BIGSUB  18        0 12.0.26090E+04   347.875    81.033  1117.968   316.641    31.489    33.195     0.000     0.000     0.330     0.000     0.000     0.000     0.000     0.000     0.000     0.330     0.004     0.000 .00000E+00 0.000E+00 0.000E+00 0.000E+00 0.000E+00 0.000E+00
BIGSUB  19        0 12.0.25380E+04   347.875    81.016  1120.895   298.083    27.857    51.395     0.001    20.530    21.191     0.000     0.000     0.000     0.000     0.000     0.000     0.660     0.007     0.685 .00000E+00 0.000E+00 0.000E+00 0.000E+00 0.000E+00 0.000E+00
BIGSUB  20        0 12.0.19820E+04   347.875    81.011  1121.796   291.359    26.580    57.960     0.001     0.000     0.818     0.000     0.000     0.000     0.000     0.000     0.000     0.817     0.009     0.000 .00000E+00 0.000E+00 0.000E+00 0.000E+00 0.000E+00 0.000E+00
